# generated using pymatgen
data_ThB2Pd2C
_symmetry_space_group_name_H-M   'P 1'
_cell_length_a   6.04000088
_cell_length_b   6.04000088
_cell_length_c   6.04000088
_cell_angle_alpha   142.76191442
_cell_angle_beta   142.76191442
_cell_angle_gamma   53.68275603
_symmetry_Int_Tables_number   1
_chemical_formula_structural   ThB2Pd2C
_chemical_formula_sum   'Th1 B2 Pd2 C1'
_cell_volume   80.16601673
_cell_formula_units_Z   1
loop_
 _symmetry_equiv_pos_site_id
 _symmetry_equiv_pos_as_xyz
  1  'x, y, z'
loop_
 _atom_site_type_symbol
 _atom_site_label
 _atom_site_symmetry_multiplicity
 _atom_site_fract_x
 _atom_site_fract_y
 _atom_site_fract_z
 _atom_site_occupancy
  Th  Th0  1  0.50000000  0.50000000  0.00000000  1
  B  B1  1  0.13787800  0.13787800  0.00000000  1
  B  B2  1  0.86212200  0.86212200  0.00000000  1
  Pd  Pd3  1  0.75000000  0.25000000  0.50000000  1
  Pd  Pd4  1  0.25000000  0.75000000  0.50000000  1
  C  C5  1  0.00000000  0.00000000  0.00000000  1
