# generated using pymatgen
data_Lu3Ge13Ru4
_symmetry_space_group_name_H-M   'P 1'
_cell_length_a   8.97995400
_cell_length_b   8.97995400
_cell_length_c   8.97995400
_cell_angle_alpha   90.00000000
_cell_angle_beta   90.00000000
_cell_angle_gamma   90.00000000
_symmetry_Int_Tables_number   1
_chemical_formula_structural   Lu3Ge13Ru4
_chemical_formula_sum   'Lu6 Ge26 Ru8'
_cell_volume   724.13966368
_cell_formula_units_Z   2
loop_
 _symmetry_equiv_pos_site_id
 _symmetry_equiv_pos_as_xyz
  1  'x, y, z'
loop_
 _atom_site_type_symbol
 _atom_site_label
 _atom_site_symmetry_multiplicity
 _atom_site_fract_x
 _atom_site_fract_y
 _atom_site_fract_z
 _atom_site_occupancy
  Lu  Lu0  1  0.00000000  0.50000000  0.75000000  1
  Lu  Lu1  1  0.50000000  0.25000000  0.00000000  1
  Lu  Lu2  1  0.75000000  0.00000000  0.50000000  1
  Lu  Lu3  1  0.00000000  0.50000000  0.25000000  1
  Lu  Lu4  1  0.50000000  0.75000000  0.00000000  1
  Lu  Lu5  1  0.25000000  0.00000000  0.50000000  1
  Ge  Ge6  1  0.50000000  0.50000000  0.50000000  1
  Ge  Ge7  1  0.00000000  0.00000000  0.00000000  1
  Ge  Ge8  1  0.80851100  0.35127100  0.50000000  1
  Ge  Ge9  1  0.64872900  0.50000000  0.80851100  1
  Ge  Ge10  1  0.50000000  0.19148900  0.64872900  1
  Ge  Ge11  1  0.19148900  0.64872900  0.50000000  1
  Ge  Ge12  1  0.35127100  0.50000000  0.19148900  1
  Ge  Ge13  1  0.50000000  0.80851100  0.35127100  1
  Ge  Ge14  1  0.80851100  0.64872900  0.50000000  1
  Ge  Ge15  1  0.64872900  0.50000000  0.19148900  1
  Ge  Ge16  1  0.19148900  0.35127100  0.50000000  1
  Ge  Ge17  1  0.35127100  0.50000000  0.80851100  1
  Ge  Ge18  1  0.50000000  0.80851100  0.64872900  1
  Ge  Ge19  1  0.50000000  0.19148900  0.35127100  1
  Ge  Ge20  1  0.30851100  0.00000000  0.85127100  1
  Ge  Ge21  1  0.14872900  0.30851100  0.00000000  1
  Ge  Ge22  1  0.00000000  0.14872900  0.69148900  1
  Ge  Ge23  1  0.69148900  0.00000000  0.14872900  1
  Ge  Ge24  1  0.85127100  0.69148900  0.00000000  1
  Ge  Ge25  1  0.00000000  0.85127100  0.30851100  1
  Ge  Ge26  1  0.30851100  0.00000000  0.14872900  1
  Ge  Ge27  1  0.14872900  0.69148900  0.00000000  1
  Ge  Ge28  1  0.69148900  0.00000000  0.85127100  1
  Ge  Ge29  1  0.85127100  0.30851100  0.00000000  1
  Ge  Ge30  1  0.00000000  0.14872900  0.30851100  1
  Ge  Ge31  1  0.00000000  0.85127100  0.69148900  1
  Ru  Ru32  1  0.75000000  0.25000000  0.75000000  1
  Ru  Ru33  1  0.25000000  0.75000000  0.25000000  1
  Ru  Ru34  1  0.75000000  0.75000000  0.25000000  1
  Ru  Ru35  1  0.25000000  0.25000000  0.75000000  1
  Ru  Ru36  1  0.25000000  0.75000000  0.75000000  1
  Ru  Ru37  1  0.75000000  0.25000000  0.25000000  1
  Ru  Ru38  1  0.25000000  0.25000000  0.25000000  1
  Ru  Ru39  1  0.75000000  0.75000000  0.75000000  1
