# generated using pymatgen
data_U2Al3Ga
_symmetry_space_group_name_H-M   'P 1'
_cell_length_a   5.46035097
_cell_length_b   5.46035097
_cell_length_c   5.46035166
_cell_angle_alpha   59.98364866
_cell_angle_beta   59.98364866
_cell_angle_gamma   59.98365613
_symmetry_Int_Tables_number   1
_chemical_formula_structural   U2Al3Ga
_chemical_formula_sum   'U2 Al3 Ga1'
_cell_volume   115.07625122
_cell_formula_units_Z   1
loop_
 _symmetry_equiv_pos_site_id
 _symmetry_equiv_pos_as_xyz
  1  'x, y, z'
loop_
 _atom_site_type_symbol
 _atom_site_label
 _atom_site_symmetry_multiplicity
 _atom_site_fract_x
 _atom_site_fract_y
 _atom_site_fract_z
 _atom_site_occupancy
  U  U0  1  0.12413000  0.12413000  0.12413000  1
  U  U1  1  0.87587000  0.87587000  0.87587000  1
  Al  Al2  1  0.50000000  0.00000000  0.50000000  1
  Al  Al3  1  0.00000000  0.50000000  0.50000000  1
  Al  Al4  1  0.50000000  0.50000000  0.00000000  1
  Ga  Ga5  1  0.50000000  0.50000000  0.50000000  1
