# generated using pymatgen
data_LaZnIn
_symmetry_space_group_name_H-M   'P 1'
_cell_length_a   4.81056432
_cell_length_b   4.81056432
_cell_length_c   7.85949900
_cell_angle_alpha   90.00000000
_cell_angle_beta   90.00000000
_cell_angle_gamma   120.00000440
_symmetry_Int_Tables_number   1
_chemical_formula_structural   LaZnIn
_chemical_formula_sum   'La2 Zn2 In2'
_cell_volume   157.51340761
_cell_formula_units_Z   2
loop_
 _symmetry_equiv_pos_site_id
 _symmetry_equiv_pos_as_xyz
  1  'x, y, z'
loop_
 _atom_site_type_symbol
 _atom_site_label
 _atom_site_symmetry_multiplicity
 _atom_site_fract_x
 _atom_site_fract_y
 _atom_site_fract_z
 _atom_site_occupancy
  La  La0  1  0.00000000  0.00000000  0.50000000  1
  La  La1  1  0.00000000  0.00000000  0.00000000  1
  Zn  Zn2  1  0.33333300  0.66666700  0.75000000  1
  Zn  Zn3  1  0.66666700  0.33333300  0.25000000  1
  In  In4  1  0.33333300  0.66666700  0.25000000  1
  In  In5  1  0.66666700  0.33333300  0.75000000  1
