# generated using pymatgen
data_NdSb2Pd
_symmetry_space_group_name_H-M   'P 1'
_cell_length_a   5.78196200
_cell_length_b   5.78196200
_cell_length_c   6.19641800
_cell_angle_alpha   90.00000000
_cell_angle_beta   90.00000000
_cell_angle_gamma   90.00000000
_symmetry_Int_Tables_number   1
_chemical_formula_structural   NdSb2Pd
_chemical_formula_sum   'Nd2 Sb4 Pd2'
_cell_volume   207.15297419
_cell_formula_units_Z   2
loop_
 _symmetry_equiv_pos_site_id
 _symmetry_equiv_pos_as_xyz
  1  'x, y, z'
loop_
 _atom_site_type_symbol
 _atom_site_label
 _atom_site_symmetry_multiplicity
 _atom_site_fract_x
 _atom_site_fract_y
 _atom_site_fract_z
 _atom_site_occupancy
  Nd  Nd0  1  0.75000000  0.75000000  0.66981900  1
  Nd  Nd1  1  0.25000000  0.25000000  0.33018100  1
  Sb  Sb2  1  0.75000000  0.75000000  0.16191000  1
  Sb  Sb3  1  0.25000000  0.25000000  0.83809000  1
  Sb  Sb4  1  0.75000000  0.25000000  0.50000000  1
  Sb  Sb5  1  0.25000000  0.75000000  0.50000000  1
  Pd  Pd6  1  0.75000000  0.25000000  0.00000000  1
  Pd  Pd7  1  0.25000000  0.75000000  0.00000000  1
