# generated using pymatgen
data_HgPb2
_symmetry_space_group_name_H-M   'P 1'
_cell_length_a   3.50876835
_cell_length_b   3.50876835
_cell_length_c   8.56737949
_cell_angle_alpha   83.85694976
_cell_angle_beta   83.85694976
_cell_angle_gamma   61.99419748
_symmetry_Int_Tables_number   1
_chemical_formula_structural   HgPb2
_chemical_formula_sum   'Hg1 Pb2'
_cell_volume   92.39704839
_cell_formula_units_Z   1
loop_
 _symmetry_equiv_pos_site_id
 _symmetry_equiv_pos_as_xyz
  1  'x, y, z'
loop_
 _atom_site_type_symbol
 _atom_site_label
 _atom_site_symmetry_multiplicity
 _atom_site_fract_x
 _atom_site_fract_y
 _atom_site_fract_z
 _atom_site_occupancy
  Hg  Hg0  1  0.00000000  0.00000000  0.00000000  1
  Pb  Pb1  1  0.66465700  0.66465700  0.66799800  1
  Pb  Pb2  1  0.33534300  0.33534300  0.33200200  1
