# generated using pymatgen
data_Th(BRh)4
_symmetry_space_group_name_H-M   'P 1'
_cell_length_a   5.39230400
_cell_length_b   5.39230400
_cell_length_c   7.62243600
_cell_angle_alpha   90.00000000
_cell_angle_beta   90.00000000
_cell_angle_gamma   90.00000000
_symmetry_Int_Tables_number   1
_chemical_formula_structural   Th(BRh)4
_chemical_formula_sum   'Th2 B8 Rh8'
_cell_volume   221.63713274
_cell_formula_units_Z   2
loop_
 _symmetry_equiv_pos_site_id
 _symmetry_equiv_pos_as_xyz
  1  'x, y, z'
loop_
 _atom_site_type_symbol
 _atom_site_label
 _atom_site_symmetry_multiplicity
 _atom_site_fract_x
 _atom_site_fract_y
 _atom_site_fract_z
 _atom_site_occupancy
  Th  Th0  1  0.00000000  0.00000000  0.00000000  1
  Th  Th1  1  0.50000000  0.50000000  0.50000000  1
  B  B2  1  0.83387500  0.50000000  0.15209100  1
  B  B3  1  0.16612500  0.50000000  0.15209100  1
  B  B4  1  0.00000000  0.33387500  0.65209100  1
  B  B5  1  0.00000000  0.66612500  0.65209100  1
  B  B6  1  0.66612500  0.00000000  0.34790900  1
  B  B7  1  0.33387500  0.00000000  0.34790900  1
  B  B8  1  0.50000000  0.16612500  0.84790900  1
  B  B9  1  0.50000000  0.83387500  0.84790900  1
  Rh  Rh10  1  0.24953800  0.50000000  0.85521900  1
  Rh  Rh11  1  0.75046200  0.50000000  0.85521900  1
  Rh  Rh12  1  0.00000000  0.74953800  0.35521900  1
  Rh  Rh13  1  0.00000000  0.25046200  0.35521900  1
  Rh  Rh14  1  0.25046200  0.00000000  0.64478100  1
  Rh  Rh15  1  0.74953800  0.00000000  0.64478100  1
  Rh  Rh16  1  0.50000000  0.75046200  0.14478100  1
  Rh  Rh17  1  0.50000000  0.24953800  0.14478100  1
