# generated using pymatgen
data_Cs2RbScCl6
_symmetry_space_group_name_H-M   'P 1'
_cell_length_a   7.98380690
_cell_length_b   7.98380690
_cell_length_c   7.98380690
_cell_angle_alpha   60.00000000
_cell_angle_beta   60.00000000
_cell_angle_gamma   60.00000000
_symmetry_Int_Tables_number   1
_chemical_formula_structural   Cs2RbScCl6
_chemical_formula_sum   'Cs2 Rb1 Sc1 Cl6'
_cell_volume   359.84467102
_cell_formula_units_Z   1
loop_
 _symmetry_equiv_pos_site_id
 _symmetry_equiv_pos_as_xyz
  1  'x, y, z'
loop_
 _atom_site_type_symbol
 _atom_site_label
 _atom_site_symmetry_multiplicity
 _atom_site_fract_x
 _atom_site_fract_y
 _atom_site_fract_z
 _atom_site_occupancy
  Cs  Cs0  1  0.75000000  0.75000000  0.75000000  1
  Cs  Cs1  1  0.25000000  0.25000000  0.25000000  1
  Rb  Rb2  1  0.50000000  0.50000000  0.50000000  1
  Sc  Sc3  1  0.00000000  0.00000000  0.00000000  1
  Cl  Cl4  1  0.77822200  0.22177800  0.22177800  1
  Cl  Cl5  1  0.22177800  0.22177800  0.77822200  1
  Cl  Cl6  1  0.22177800  0.77822200  0.77822200  1
  Cl  Cl7  1  0.22177800  0.77822200  0.22177800  1
  Cl  Cl8  1  0.77822200  0.22177800  0.77822200  1
  Cl  Cl9  1  0.77822200  0.77822200  0.22177800  1
