# generated using pymatgen
data_VZnCo2
_symmetry_space_group_name_H-M   'P 1'
_cell_length_a   9.35202014
_cell_length_b   9.35202014
_cell_length_c   9.35202014
_cell_angle_alpha   124.29446788
_cell_angle_beta   119.03897543
_cell_angle_gamma   87.19994370
_symmetry_Int_Tables_number   1
_chemical_formula_structural   VZnCo2
_chemical_formula_sum   'V1 Zn1 Co2'
_cell_volume   561.48737448
_cell_formula_units_Z   1
loop_
 _symmetry_equiv_pos_site_id
 _symmetry_equiv_pos_as_xyz
  1  'x, y, z'
loop_
 _atom_site_type_symbol
 _atom_site_label
 _atom_site_symmetry_multiplicity
 _atom_site_fract_x
 _atom_site_fract_y
 _atom_site_fract_z
 _atom_site_occupancy
  V  V0  1  0.00000000  0.00000000  0.00000000  1
  Zn  Zn1  1  0.00000000  0.50000000  0.50000000  1
  Co  Co2  1  0.00000000  0.21425300  0.21425300  1
  Co  Co3  1  0.00000000  0.78574700  0.78574700  1
