# generated using pymatgen
data_MgGaPt2
_symmetry_space_group_name_H-M   'P 1'
_cell_length_a   10.77923946
_cell_length_b   10.77923946
_cell_length_c   10.77923946
_cell_angle_alpha   127.16695649
_cell_angle_beta   117.73344808
_cell_angle_gamma   86.01481780
_symmetry_Int_Tables_number   1
_chemical_formula_structural   MgGaPt2
_chemical_formula_sum   'Mg1 Ga1 Pt2'
_cell_volume   842.69738249
_cell_formula_units_Z   1
loop_
 _symmetry_equiv_pos_site_id
 _symmetry_equiv_pos_as_xyz
  1  'x, y, z'
loop_
 _atom_site_type_symbol
 _atom_site_label
 _atom_site_symmetry_multiplicity
 _atom_site_fract_x
 _atom_site_fract_y
 _atom_site_fract_z
 _atom_site_occupancy
  Mg  Mg0  1  0.00000000  0.00000000  0.00000000  1
  Ga  Ga1  1  0.00000000  0.50000000  0.50000000  1
  Pt  Pt2  1  0.00000000  0.25905300  0.25905300  1
  Pt  Pt3  1  0.00000000  0.74094700  0.74094700  1
