# generated using pymatgen
data_Th(GeIr)2
_symmetry_space_group_name_H-M   'P 1'
_cell_length_a   4.27611000
_cell_length_b   4.27611000
_cell_length_c   10.18191300
_cell_angle_alpha   90.00000000
_cell_angle_beta   90.00000000
_cell_angle_gamma   90.00000000
_symmetry_Int_Tables_number   1
_chemical_formula_structural   Th(GeIr)2
_chemical_formula_sum   'Th2 Ge4 Ir4'
_cell_volume   186.17746776
_cell_formula_units_Z   2
loop_
 _symmetry_equiv_pos_site_id
 _symmetry_equiv_pos_as_xyz
  1  'x, y, z'
loop_
 _atom_site_type_symbol
 _atom_site_label
 _atom_site_symmetry_multiplicity
 _atom_site_fract_x
 _atom_site_fract_y
 _atom_site_fract_z
 _atom_site_occupancy
  Th  Th0  1  0.00000000  0.50000000  0.25290700  1
  Th  Th1  1  0.50000000  0.00000000  0.74709300  1
  Ge  Ge2  1  0.00000000  0.00000000  0.50000000  1
  Ge  Ge3  1  0.50000000  0.50000000  0.50000000  1
  Ge  Ge4  1  0.00000000  0.50000000  0.86757700  1
  Ge  Ge5  1  0.50000000  0.00000000  0.13242300  1
  Ir  Ir6  1  0.00000000  0.00000000  0.00000000  1
  Ir  Ir7  1  0.50000000  0.50000000  0.00000000  1
  Ir  Ir8  1  0.00000000  0.50000000  0.62823200  1
  Ir  Ir9  1  0.50000000  0.00000000  0.37176800  1
