# generated using pymatgen
data_Mg3Zn
_symmetry_space_group_name_H-M   'P 1'
_cell_length_a   6.12622124
_cell_length_b   6.12622124
_cell_length_c   4.97914900
_cell_angle_alpha   90.00000000
_cell_angle_beta   90.00000000
_cell_angle_gamma   119.99999176
_symmetry_Int_Tables_number   1
_chemical_formula_structural   Mg3Zn
_chemical_formula_sum   'Mg6 Zn2'
_cell_volume   161.83451229
_cell_formula_units_Z   2
loop_
 _symmetry_equiv_pos_site_id
 _symmetry_equiv_pos_as_xyz
  1  'x, y, z'
loop_
 _atom_site_type_symbol
 _atom_site_label
 _atom_site_symmetry_multiplicity
 _atom_site_fract_x
 _atom_site_fract_y
 _atom_site_fract_z
 _atom_site_occupancy
  Mg  Mg0  1  0.65951600  0.82975800  0.75000000  1
  Mg  Mg1  1  0.17024200  0.34048400  0.75000000  1
  Mg  Mg2  1  0.17024200  0.82975800  0.75000000  1
  Mg  Mg3  1  0.82975800  0.65951600  0.25000000  1
  Mg  Mg4  1  0.82975800  0.17024200  0.25000000  1
  Mg  Mg5  1  0.34048400  0.17024200  0.25000000  1
  Zn  Zn6  1  0.66666700  0.33333300  0.75000000  1
  Zn  Zn7  1  0.33333300  0.66666700  0.25000000  1
