# generated using pymatgen
data_Yb3Ge13Ru4
_symmetry_space_group_name_H-M   'P 1'
_cell_length_a   9.02323800
_cell_length_b   9.02323800
_cell_length_c   9.02323800
_cell_angle_alpha   90.00000000
_cell_angle_beta   90.00000000
_cell_angle_gamma   90.00000000
_symmetry_Int_Tables_number   1
_chemical_formula_structural   Yb3Ge13Ru4
_chemical_formula_sum   'Yb6 Ge26 Ru8'
_cell_volume   734.66142667
_cell_formula_units_Z   2
loop_
 _symmetry_equiv_pos_site_id
 _symmetry_equiv_pos_as_xyz
  1  'x, y, z'
loop_
 _atom_site_type_symbol
 _atom_site_label
 _atom_site_symmetry_multiplicity
 _atom_site_fract_x
 _atom_site_fract_y
 _atom_site_fract_z
 _atom_site_occupancy
  Yb  Yb0  1  0.00000000  0.50000000  0.75000000  1
  Yb  Yb1  1  0.50000000  0.25000000  0.00000000  1
  Yb  Yb2  1  0.75000000  0.00000000  0.50000000  1
  Yb  Yb3  1  0.00000000  0.50000000  0.25000000  1
  Yb  Yb4  1  0.50000000  0.75000000  0.00000000  1
  Yb  Yb5  1  0.25000000  0.00000000  0.50000000  1
  Ge  Ge6  1  0.50000000  0.50000000  0.50000000  1
  Ge  Ge7  1  0.00000000  0.00000000  0.00000000  1
  Ge  Ge8  1  0.81083600  0.35151400  0.50000000  1
  Ge  Ge9  1  0.64848600  0.50000000  0.81083600  1
  Ge  Ge10  1  0.50000000  0.18916400  0.64848600  1
  Ge  Ge11  1  0.18916400  0.64848600  0.50000000  1
  Ge  Ge12  1  0.35151400  0.50000000  0.18916400  1
  Ge  Ge13  1  0.50000000  0.81083600  0.35151400  1
  Ge  Ge14  1  0.81083600  0.64848600  0.50000000  1
  Ge  Ge15  1  0.64848600  0.50000000  0.18916400  1
  Ge  Ge16  1  0.18916400  0.35151400  0.50000000  1
  Ge  Ge17  1  0.35151400  0.50000000  0.81083600  1
  Ge  Ge18  1  0.50000000  0.81083600  0.64848600  1
  Ge  Ge19  1  0.50000000  0.18916400  0.35151400  1
  Ge  Ge20  1  0.31083600  0.00000000  0.85151400  1
  Ge  Ge21  1  0.14848600  0.31083600  0.00000000  1
  Ge  Ge22  1  0.00000000  0.14848600  0.68916400  1
  Ge  Ge23  1  0.68916400  0.00000000  0.14848600  1
  Ge  Ge24  1  0.85151400  0.68916400  0.00000000  1
  Ge  Ge25  1  0.00000000  0.85151400  0.31083600  1
  Ge  Ge26  1  0.31083600  0.00000000  0.14848600  1
  Ge  Ge27  1  0.14848600  0.68916400  0.00000000  1
  Ge  Ge28  1  0.68916400  0.00000000  0.85151400  1
  Ge  Ge29  1  0.85151400  0.31083600  0.00000000  1
  Ge  Ge30  1  0.00000000  0.14848600  0.31083600  1
  Ge  Ge31  1  0.00000000  0.85151400  0.68916400  1
  Ru  Ru32  1  0.75000000  0.25000000  0.75000000  1
  Ru  Ru33  1  0.25000000  0.75000000  0.25000000  1
  Ru  Ru34  1  0.75000000  0.75000000  0.25000000  1
  Ru  Ru35  1  0.25000000  0.25000000  0.75000000  1
  Ru  Ru36  1  0.25000000  0.75000000  0.75000000  1
  Ru  Ru37  1  0.75000000  0.25000000  0.25000000  1
  Ru  Ru38  1  0.25000000  0.25000000  0.25000000  1
  Ru  Ru39  1  0.75000000  0.75000000  0.75000000  1
