# generated using pymatgen
data_Be5Pt
_symmetry_space_group_name_H-M   'P 1'
_cell_length_a   4.22654977
_cell_length_b   4.22654977
_cell_length_c   4.22654977
_cell_angle_alpha   60.00000000
_cell_angle_beta   60.00000000
_cell_angle_gamma   60.00000000
_symmetry_Int_Tables_number   1
_chemical_formula_structural   Be5Pt
_chemical_formula_sum   'Be5 Pt1'
_cell_volume   53.38791531
_cell_formula_units_Z   1
loop_
 _symmetry_equiv_pos_site_id
 _symmetry_equiv_pos_as_xyz
  1  'x, y, z'
loop_
 _atom_site_type_symbol
 _atom_site_label
 _atom_site_symmetry_multiplicity
 _atom_site_fract_x
 _atom_site_fract_y
 _atom_site_fract_z
 _atom_site_occupancy
  Be  Be0  1  0.25000000  0.25000000  0.25000000  1
  Be  Be1  1  0.62448300  0.62448300  0.12655100  1
  Be  Be2  1  0.62448300  0.12655100  0.62448300  1
  Be  Be3  1  0.12655100  0.62448300  0.62448300  1
  Be  Be4  1  0.62448300  0.62448300  0.62448300  1
  Pt  Pt5  1  0.00000000  0.00000000  0.00000000  1
