# generated using pymatgen
data_UGe2
_symmetry_space_group_name_H-M   'P 1'
_cell_length_a   7.40537732
_cell_length_b   7.40537732
_cell_length_c   4.21235100
_cell_angle_alpha   90.00000000
_cell_angle_beta   90.00000000
_cell_angle_gamma   148.12692025
_symmetry_Int_Tables_number   1
_chemical_formula_structural   UGe2
_chemical_formula_sum   'U2 Ge4'
_cell_volume   121.97905252
_cell_formula_units_Z   2
loop_
 _symmetry_equiv_pos_site_id
 _symmetry_equiv_pos_as_xyz
  1  'x, y, z'
loop_
 _atom_site_type_symbol
 _atom_site_label
 _atom_site_symmetry_multiplicity
 _atom_site_fract_x
 _atom_site_fract_y
 _atom_site_fract_z
 _atom_site_occupancy
  U  U0  1  0.14697100  0.85302900  0.50000000  1
  U  U1  1  0.85302900  0.14697100  0.50000000  1
  Ge  Ge2  1  0.50000000  0.50000000  0.50000000  1
  Ge  Ge3  1  0.00000000  0.00000000  0.00000000  1
  Ge  Ge4  1  0.68392800  0.31607200  0.00000000  1
  Ge  Ge5  1  0.31607200  0.68392800  0.00000000  1
