# generated using pymatgen
data_Te2Mo2W(SeS)2
_symmetry_space_group_name_H-M   'P 1'
_cell_length_a   3.34646054
_cell_length_b   3.34646054
_cell_length_c   30.96961100
_cell_angle_alpha   90.00000000
_cell_angle_beta   90.00000000
_cell_angle_gamma   120.00001074
_symmetry_Int_Tables_number   1
_chemical_formula_structural   Te2Mo2W(SeS)2
_chemical_formula_sum   'Te2 Mo2 W1 Se2 S2'
_cell_volume   300.35699634
_cell_formula_units_Z   1
loop_
 _symmetry_equiv_pos_site_id
 _symmetry_equiv_pos_as_xyz
  1  'x, y, z'
loop_
 _atom_site_type_symbol
 _atom_site_label
 _atom_site_symmetry_multiplicity
 _atom_site_fract_x
 _atom_site_fract_y
 _atom_site_fract_z
 _atom_site_occupancy
  Te  Te0  1  0.33333300  0.66666700  0.05447300  1
  Te  Te1  1  0.33333300  0.66666700  0.17679400  1
  Mo  Mo2  1  0.00000000  0.00000000  0.11560200  1
  Mo  Mo3  1  0.33333300  0.66666700  0.34703200  1
  W  W4  1  0.00000000  0.00000000  0.57830900  1
  Se  Se5  1  0.00000000  0.00000000  0.40078300  1
  Se  Se6  1  0.00000000  0.00000000  0.29322600  1
  S  S7  1  0.33333300  0.66666700  0.52914900  1
  S  S8  1  0.33333300  0.66666700  0.62747300  1
