# generated using pymatgen
data_CaSi3Pt
_symmetry_space_group_name_H-M   'P 1'
_cell_length_a   5.82355375
_cell_length_b   5.82355375
_cell_length_c   5.82355375
_cell_angle_alpha   137.31601654
_cell_angle_beta   137.31601654
_cell_angle_gamma   61.95218269
_symmetry_Int_Tables_number   1
_chemical_formula_structural   CaSi3Pt
_chemical_formula_sum   'Ca1 Si3 Pt1'
_cell_volume   89.71062163
_cell_formula_units_Z   1
loop_
 _symmetry_equiv_pos_site_id
 _symmetry_equiv_pos_as_xyz
  1  'x, y, z'
loop_
 _atom_site_type_symbol
 _atom_site_label
 _atom_site_symmetry_multiplicity
 _atom_site_fract_x
 _atom_site_fract_y
 _atom_site_fract_z
 _atom_site_occupancy
  Ca  Ca0  1  0.00115800  0.00115800  0.00000000  1
  Si  Si1  1  0.40326300  0.40326300  0.00000000  1
  Si  Si2  1  0.26173100  0.76173100  0.50000000  1
  Si  Si3  1  0.76173100  0.26173100  0.50000000  1
  Pt  Pt4  1  0.64351800  0.64351800  0.00000000  1
