# generated using pymatgen
data_RuW
_symmetry_space_group_name_H-M   'P 1'
_cell_length_a   2.78824835
_cell_length_b   2.78824835
_cell_length_c   4.48768700
_cell_angle_alpha   90.00000000
_cell_angle_beta   90.00000000
_cell_angle_gamma   120.00000822
_symmetry_Int_Tables_number   1
_chemical_formula_structural   RuW
_chemical_formula_sum   'Ru1 W1'
_cell_volume   30.21454518
_cell_formula_units_Z   1
loop_
 _symmetry_equiv_pos_site_id
 _symmetry_equiv_pos_as_xyz
  1  'x, y, z'
loop_
 _atom_site_type_symbol
 _atom_site_label
 _atom_site_symmetry_multiplicity
 _atom_site_fract_x
 _atom_site_fract_y
 _atom_site_fract_z
 _atom_site_occupancy
  Ru  Ru0  1  0.33333300  0.66666700  0.50000000  1
  W  W1  1  0.00000000  0.00000000  0.00000000  1
