# generated using pymatgen
data_NaEuHfZrO6
_symmetry_space_group_name_H-M   'P 1'
_cell_length_a   5.83593337
_cell_length_b   5.83593337
_cell_length_c   5.83593337
_cell_angle_alpha   60.00000000
_cell_angle_beta   60.00000000
_cell_angle_gamma   60.00000000
_symmetry_Int_Tables_number   1
_chemical_formula_structural   NaEuHfZrO6
_chemical_formula_sum   'Na1 Eu1 Hf1 Zr1 O6'
_cell_volume   140.54518661
_cell_formula_units_Z   1
loop_
 _symmetry_equiv_pos_site_id
 _symmetry_equiv_pos_as_xyz
  1  'x, y, z'
loop_
 _atom_site_type_symbol
 _atom_site_label
 _atom_site_symmetry_multiplicity
 _atom_site_fract_x
 _atom_site_fract_y
 _atom_site_fract_z
 _atom_site_occupancy
  Na  Na0  1  0.75000000  0.75000000  0.75000000  1
  Eu  Eu1  1  0.25000000  0.25000000  0.25000000  1
  Hf  Hf2  1  -0.00000000  0.00000000  -0.00000000  1
  Zr  Zr3  1  0.50000000  0.50000000  0.50000000  1
  O  O4  1  0.75177987  0.24822013  0.24822013  1
  O  O5  1  0.24822013  0.75177987  0.75177987  1
  O  O6  1  0.75177987  0.24822013  0.75177987  1
  O  O7  1  0.24822013  0.75177987  0.24822013  1
  O  O8  1  0.75177987  0.75177987  0.24822013  1
  O  O9  1  0.24822013  0.24822013  0.75177987  1
