# generated using pymatgen
data_Rb2VF6
_symmetry_space_group_name_H-M   'P 1'
_cell_length_a   6.13674217
_cell_length_b   6.13674217
_cell_length_c   6.13674217
_cell_angle_alpha   60.00000000
_cell_angle_beta   60.00000000
_cell_angle_gamma   60.00000000
_symmetry_Int_Tables_number   1
_chemical_formula_structural   Rb2VF6
_chemical_formula_sum   'Rb2 V1 F6'
_cell_volume   163.41752653
_cell_formula_units_Z   1
loop_
 _symmetry_equiv_pos_site_id
 _symmetry_equiv_pos_as_xyz
  1  'x, y, z'
loop_
 _atom_site_type_symbol
 _atom_site_label
 _atom_site_symmetry_multiplicity
 _atom_site_fract_x
 _atom_site_fract_y
 _atom_site_fract_z
 _atom_site_occupancy
  Rb  Rb0  1  0.25000000  0.25000000  0.25000000  1
  Rb  Rb1  1  0.75000000  0.75000000  0.75000000  1
  V  V2  1  0.00000000  0.00000000  0.00000000  1
  F  F3  1  0.78323800  0.21676200  0.21676200  1
  F  F4  1  0.21676200  0.78323800  0.78323800  1
  F  F5  1  0.21676200  0.78323800  0.21676200  1
  F  F6  1  0.78323800  0.21676200  0.78323800  1
  F  F7  1  0.21676200  0.21676200  0.78323800  1
  F  F8  1  0.78323800  0.78323800  0.21676200  1
