# generated using pymatgen
data_Rb2TlVF6
_symmetry_space_group_name_H-M   'P 1'
_cell_length_a   6.54262600
_cell_length_b   6.54262659
_cell_length_c   6.54262607
_cell_angle_alpha   60.00000520
_cell_angle_beta   60.00000035
_cell_angle_gamma   60.00000296
_symmetry_Int_Tables_number   1
_chemical_formula_structural   Rb2TlVF6
_chemical_formula_sum   'Rb2 Tl1 V1 F6'
_cell_volume   198.03472933
_cell_formula_units_Z   1
loop_
 _symmetry_equiv_pos_site_id
 _symmetry_equiv_pos_as_xyz
  1  'x, y, z'
loop_
 _atom_site_type_symbol
 _atom_site_label
 _atom_site_symmetry_multiplicity
 _atom_site_fract_x
 _atom_site_fract_y
 _atom_site_fract_z
 _atom_site_occupancy
  Rb  Rb0  1  0.25000000  0.25000000  0.25000000  1
  Rb  Rb1  1  0.75000000  0.75000000  0.75000000  1
  Tl  Tl2  1  0.50000000  0.50000000  0.50000000  1
  V  V3  1  0.00000000  0.00000000  0.00000000  1
  F  F4  1  0.21221100  0.78778900  0.21221100  1
  F  F5  1  0.78778900  0.78778900  0.21221100  1
  F  F6  1  0.78778900  0.21221100  0.78778900  1
  F  F7  1  0.78778900  0.21221100  0.21221100  1
  F  F8  1  0.21221100  0.78778900  0.78778900  1
  F  F9  1  0.21221100  0.21221100  0.78778900  1
