# generated using pymatgen
data_Sr3Ho
_symmetry_space_group_name_H-M   'P 1'
_cell_length_a   8.08779754
_cell_length_b   8.08779754
_cell_length_c   6.56564500
_cell_angle_alpha   90.00000000
_cell_angle_beta   90.00000000
_cell_angle_gamma   119.99999625
_symmetry_Int_Tables_number   1
_chemical_formula_structural   Sr3Ho
_chemical_formula_sum   'Sr6 Ho2'
_cell_volume   371.93631812
_cell_formula_units_Z   2
loop_
 _symmetry_equiv_pos_site_id
 _symmetry_equiv_pos_as_xyz
  1  'x, y, z'
loop_
 _atom_site_type_symbol
 _atom_site_label
 _atom_site_symmetry_multiplicity
 _atom_site_fract_x
 _atom_site_fract_y
 _atom_site_fract_z
 _atom_site_occupancy
  Sr  Sr0  1  0.17171900  0.34343900  0.25000000  1
  Sr  Sr1  1  0.65656100  0.82828100  0.25000000  1
  Sr  Sr2  1  0.17171900  0.82828100  0.25000000  1
  Sr  Sr3  1  0.82828100  0.65656100  0.75000000  1
  Sr  Sr4  1  0.34343900  0.17171900  0.75000000  1
  Sr  Sr5  1  0.82828100  0.17171900  0.75000000  1
  Ho  Ho6  1  0.33333300  0.66666700  0.75000000  1
  Ho  Ho7  1  0.66666700  0.33333300  0.25000000  1
