# generated using pymatgen
data_CeSi2
_symmetry_space_group_name_H-M   'P 1'
_cell_length_a   7.64475075
_cell_length_b   7.64475075
_cell_length_c   7.64475075
_cell_angle_alpha   148.93433231
_cell_angle_beta   148.93433231
_cell_angle_gamma   44.50797460
_symmetry_Int_Tables_number   1
_chemical_formula_structural   CeSi2
_chemical_formula_sum   'Ce2 Si4'
_cell_volume   118.61060920
_cell_formula_units_Z   2
loop_
 _symmetry_equiv_pos_site_id
 _symmetry_equiv_pos_as_xyz
  1  'x, y, z'
loop_
 _atom_site_type_symbol
 _atom_site_label
 _atom_site_symmetry_multiplicity
 _atom_site_fract_x
 _atom_site_fract_y
 _atom_site_fract_z
 _atom_site_occupancy
  Ce  Ce0  1  0.75000000  0.25000000  0.50000000  1
  Ce  Ce1  1  0.00000000  0.00000000  0.00000000  1
  Si  Si2  1  0.16649600  0.66649600  0.50000000  1
  Si  Si3  1  0.58350400  0.58350400  0.00000000  1
  Si  Si4  1  0.33350400  0.83350400  0.50000000  1
  Si  Si5  1  0.41649600  0.41649600  0.00000000  1
