# generated using pymatgen
data_CuSiTc2
_symmetry_space_group_name_H-M   'P 1'
_cell_length_a   9.97610022
_cell_length_b   9.97610022
_cell_length_c   9.97610022
_cell_angle_alpha   122.93039596
_cell_angle_beta   119.03490580
_cell_angle_gamma   88.34035799
_symmetry_Int_Tables_number   1
_chemical_formula_structural   CuSiTc2
_chemical_formula_sum   'Cu1 Si1 Tc2'
_cell_volume   690.27114345
_cell_formula_units_Z   1
loop_
 _symmetry_equiv_pos_site_id
 _symmetry_equiv_pos_as_xyz
  1  'x, y, z'
loop_
 _atom_site_type_symbol
 _atom_site_label
 _atom_site_symmetry_multiplicity
 _atom_site_fract_x
 _atom_site_fract_y
 _atom_site_fract_z
 _atom_site_occupancy
  Cu  Cu0  1  0.00000000  0.50000000  0.50000000  1
  Si  Si1  1  0.00000000  0.00000000  0.00000000  1
  Tc  Tc2  1  0.00000000  0.23929800  0.23929800  1
  Tc  Tc3  1  0.00000000  0.76070200  0.76070200  1
