# generated using pymatgen
data_LaNiPO
_symmetry_space_group_name_H-M   'P 1'
_cell_length_a   4.08028400
_cell_length_b   4.08028400
_cell_length_c   8.01578600
_cell_angle_alpha   90.00000000
_cell_angle_beta   90.00000000
_cell_angle_gamma   90.00000000
_symmetry_Int_Tables_number   1
_chemical_formula_structural   LaNiPO
_chemical_formula_sum   'La2 Ni2 P2 O2'
_cell_volume   133.45255682
_cell_formula_units_Z   2
loop_
 _symmetry_equiv_pos_site_id
 _symmetry_equiv_pos_as_xyz
  1  'x, y, z'
loop_
 _atom_site_type_symbol
 _atom_site_label
 _atom_site_symmetry_multiplicity
 _atom_site_fract_x
 _atom_site_fract_y
 _atom_site_fract_z
 _atom_site_occupancy
  La  La0  1  0.00000000  0.50000000  0.84746800  1
  La  La1  1  0.50000000  0.00000000  0.15253200  1
  Ni  Ni2  1  0.00000000  0.00000000  0.50000000  1
  Ni  Ni3  1  0.50000000  0.50000000  0.50000000  1
  P  P4  1  0.00000000  0.50000000  0.38477500  1
  P  P5  1  0.50000000  0.00000000  0.61522500  1
  O  O6  1  0.00000000  0.00000000  0.00000000  1
  O  O7  1  0.50000000  0.50000000  0.00000000  1
