# generated using pymatgen
data_Na3PSe4
_symmetry_space_group_name_H-M   'P 1'
_cell_length_a   6.39092107
_cell_length_b   6.39092107
_cell_length_c   6.39092107
_cell_angle_alpha   109.47122063
_cell_angle_beta   109.47122063
_cell_angle_gamma   109.47122063
_symmetry_Int_Tables_number   1
_chemical_formula_structural   Na3PSe4
_chemical_formula_sum   'Na3 P1 Se4'
_cell_volume   200.94095913
_cell_formula_units_Z   1
loop_
 _symmetry_equiv_pos_site_id
 _symmetry_equiv_pos_as_xyz
  1  'x, y, z'
loop_
 _atom_site_type_symbol
 _atom_site_label
 _atom_site_symmetry_multiplicity
 _atom_site_fract_x
 _atom_site_fract_y
 _atom_site_fract_z
 _atom_site_occupancy
  Na  Na0  1  0.00000000  0.50000000  0.50000000  1
  Na  Na1  1  0.50000000  0.00000000  0.50000000  1
  Na  Na2  1  0.50000000  0.50000000  0.00000000  1
  P  P3  1  0.00000000  0.00000000  0.00000000  1
  Se  Se4  1  0.35178000  0.00000000  0.00000000  1
  Se  Se5  1  0.00000000  0.35178000  0.00000000  1
  Se  Se6  1  0.00000000  0.00000000  0.35178000  1
  Se  Se7  1  0.64822000  0.64822000  0.64822000  1
