# generated using pymatgen
data_FeAg3F6
_symmetry_space_group_name_H-M   'P 1'
_cell_length_a   6.14514206
_cell_length_b   6.14514206
_cell_length_c   6.14514206
_cell_angle_alpha   115.95844008
_cell_angle_beta   115.95844008
_cell_angle_gamma   97.15545277
_symmetry_Int_Tables_number   1
_chemical_formula_structural   FeAg3F6
_chemical_formula_sum   'Fe1 Ag3 F6'
_cell_volume   172.65408627
_cell_formula_units_Z   1
loop_
 _symmetry_equiv_pos_site_id
 _symmetry_equiv_pos_as_xyz
  1  'x, y, z'
loop_
 _atom_site_type_symbol
 _atom_site_label
 _atom_site_symmetry_multiplicity
 _atom_site_fract_x
 _atom_site_fract_y
 _atom_site_fract_z
 _atom_site_occupancy
  Fe  Fe0  1  0.00000000  0.00000000  0.00000000  1
  Ag  Ag1  1  0.75000000  0.25000000  0.50000000  1
  Ag  Ag2  1  0.25000000  0.75000000  0.50000000  1
  Ag  Ag3  1  0.50000000  0.50000000  0.00000000  1
  F  F4  1  0.00000000  0.29930500  0.29930500  1
  F  F5  1  0.00000000  0.70069500  0.70069500  1
  F  F6  1  0.29930500  0.00000000  0.29930500  1
  F  F7  1  0.70069500  0.00000000  0.70069500  1
  F  F8  1  0.24079600  0.24079600  0.00000000  1
  F  F9  1  0.75920400  0.75920400  0.00000000  1
