# generated using pymatgen
data_K4GeO4
_symmetry_space_group_name_H-M   'P 1'
_cell_length_a   6.49395200
_cell_length_b   6.53932530
_cell_length_c   9.42961922
_cell_angle_alpha   72.43934935
_cell_angle_beta   80.57724620
_cell_angle_gamma   65.66887992
_symmetry_Int_Tables_number   1
_chemical_formula_structural   K4GeO4
_chemical_formula_sum   'K8 Ge2 O8'
_cell_volume   347.50986351
_cell_formula_units_Z   2
loop_
 _symmetry_equiv_pos_site_id
 _symmetry_equiv_pos_as_xyz
  1  'x, y, z'
loop_
 _atom_site_type_symbol
 _atom_site_label
 _atom_site_symmetry_multiplicity
 _atom_site_fract_x
 _atom_site_fract_y
 _atom_site_fract_z
 _atom_site_occupancy
  K  K0  1  0.73925500  0.90638600  0.34795600  1
  K  K1  1  0.26074500  0.09361400  0.65204400  1
  K  K2  1  0.27461400  0.54504000  0.87640100  1
  K  K3  1  0.72538600  0.45496000  0.12359900  1
  K  K4  1  0.77385800  0.00676500  0.93892500  1
  K  K5  1  0.22614200  0.99323500  0.06107500  1
  K  K6  1  0.24636900  0.73089500  0.46886200  1
  K  K7  1  0.75363100  0.26910500  0.53113800  1
  Ge  Ge8  1  0.24019900  0.34682600  0.25033800  1
  Ge  Ge9  1  0.75980100  0.65317400  0.74966200  1
  O  O10  1  0.39397700  0.33642800  0.39615400  1
  O  O11  1  0.60602300  0.66357200  0.60384600  1
  O  O12  1  0.93044100  0.82468400  0.68335900  1
  O  O13  1  0.06955900  0.17531600  0.31664100  1
  O  O14  1  0.54476300  0.78763800  0.87871900  1
  O  O15  1  0.45523700  0.21236200  0.12128100  1
  O  O16  1  0.93725600  0.35868200  0.83987200  1
  O  O17  1  0.06274400  0.64131800  0.16012800  1
