# generated using pymatgen
data_SrLa2Ti3O9
_symmetry_space_group_name_H-M   'P 1'
_cell_length_a   5.58506820
_cell_length_b   5.58506820
_cell_length_c   6.83067200
_cell_angle_alpha   90.00000000
_cell_angle_beta   90.00000000
_cell_angle_gamma   120.00000236
_symmetry_Int_Tables_number   1
_chemical_formula_structural   SrLa2Ti3O9
_chemical_formula_sum   'Sr1 La2 Ti3 O9'
_cell_volume   184.52321560
_cell_formula_units_Z   1
loop_
 _symmetry_equiv_pos_site_id
 _symmetry_equiv_pos_as_xyz
  1  'x, y, z'
loop_
 _atom_site_type_symbol
 _atom_site_label
 _atom_site_symmetry_multiplicity
 _atom_site_fract_x
 _atom_site_fract_y
 _atom_site_fract_z
 _atom_site_occupancy
  Sr  Sr0  1  0.00000000  0.00000000  0.00000000  1
  La  La1  1  0.66666700  0.33333300  0.33081200  1
  La  La2  1  0.33333300  0.66666700  0.66918800  1
  Ti  Ti3  1  0.00000000  0.00000000  0.50000000  1
  Ti  Ti4  1  0.66666700  0.33333300  0.83539400  1
  Ti  Ti5  1  0.33333300  0.66666700  0.16460600  1
  O  O6  1  0.66383800  0.83191900  0.33628300  1
  O  O7  1  0.33616200  0.16808100  0.66371700  1
  O  O8  1  0.00000000  0.50000000  0.00000000  1
  O  O9  1  0.83191900  0.66383800  0.66371700  1
  O  O10  1  0.50000000  0.00000000  0.00000000  1
  O  O11  1  0.16808100  0.33616200  0.33628300  1
  O  O12  1  0.83191900  0.16808100  0.66371700  1
  O  O13  1  0.50000000  0.50000000  0.00000000  1
  O  O14  1  0.16808100  0.83191900  0.33628300  1
