# generated using pymatgen
data_CeSe2
_symmetry_space_group_name_H-M   'P 1'
_cell_length_a   14.20403553
_cell_length_b   14.20403553
_cell_length_c   14.20403551
_cell_angle_alpha   116.09782093
_cell_angle_beta   116.09782093
_cell_angle_gamma   116.09781631
_symmetry_Int_Tables_number   1
_chemical_formula_structural   CeSe2
_chemical_formula_sum   'Ce6 Se12'
_cell_volume   1430.55079817
_cell_formula_units_Z   6
loop_
 _symmetry_equiv_pos_site_id
 _symmetry_equiv_pos_as_xyz
  1  'x, y, z'
loop_
 _atom_site_type_symbol
 _atom_site_label
 _atom_site_symmetry_multiplicity
 _atom_site_fract_x
 _atom_site_fract_y
 _atom_site_fract_z
 _atom_site_occupancy
  Ce  Ce0  1  0.79691500  0.79691500  0.17550000  1
  Ce  Ce1  1  0.17550000  0.79691500  0.79691500  1
  Ce  Ce2  1  0.79691500  0.17550000  0.79691500  1
  Ce  Ce3  1  0.20308500  0.20308500  0.82450000  1
  Ce  Ce4  1  0.82450000  0.20308500  0.20308500  1
  Ce  Ce5  1  0.20308500  0.82450000  0.20308500  1
  Se  Se6  1  0.00000000  0.00000000  0.50000000  1
  Se  Se7  1  0.50000000  0.00000000  0.00000000  1
  Se  Se8  1  0.00000000  0.50000000  0.00000000  1
  Se  Se9  1  0.00000000  0.82109100  0.17890900  1
  Se  Se10  1  0.17890900  0.00000000  0.82109100  1
  Se  Se11  1  0.82109100  0.17890900  0.00000000  1
  Se  Se12  1  0.17890900  0.82109100  0.00000000  1
  Se  Se13  1  0.00000000  0.17890900  0.82109100  1
  Se  Se14  1  0.82109100  0.00000000  0.17890900  1
  Se  Se15  1  0.50000000  0.50000000  0.00000000  1
  Se  Se16  1  0.00000000  0.50000000  0.50000000  1
  Se  Se17  1  0.50000000  0.00000000  0.50000000  1
