# generated using pymatgen
data_Al6Re
_symmetry_space_group_name_H-M   'P 1'
_cell_length_a   5.05882284
_cell_length_b   5.05882284
_cell_length_c   9.03369300
_cell_angle_alpha   90.00000000
_cell_angle_beta   90.00000000
_cell_angle_gamma   98.11953343
_symmetry_Int_Tables_number   1
_chemical_formula_structural   Al6Re
_chemical_formula_sum   'Al12 Re2'
_cell_volume   228.86993347
_cell_formula_units_Z   2
loop_
 _symmetry_equiv_pos_site_id
 _symmetry_equiv_pos_as_xyz
  1  'x, y, z'
loop_
 _atom_site_type_symbol
 _atom_site_label
 _atom_site_symmetry_multiplicity
 _atom_site_fract_x
 _atom_site_fract_y
 _atom_site_fract_z
 _atom_site_occupancy
  Al  Al0  1  0.67480500  0.32519500  0.50000000  1
  Al  Al1  1  0.67480500  0.32519500  0.00000000  1
  Al  Al2  1  0.32519500  0.67480500  0.50000000  1
  Al  Al3  1  0.32519500  0.67480500  0.00000000  1
  Al  Al4  1  0.87099700  0.87099700  0.89877100  1
  Al  Al5  1  0.12900300  0.12900300  0.10122900  1
  Al  Al6  1  0.87099700  0.87099700  0.60122900  1
  Al  Al7  1  0.12900300  0.12900300  0.39877000  1
  Al  Al8  1  0.60987500  0.96894500  0.25000000  1
  Al  Al9  1  0.03105500  0.39012500  0.75000000  1
  Al  Al10  1  0.39012500  0.03105500  0.75000000  1
  Al  Al11  1  0.96894500  0.60987500  0.25000000  1
  Re  Re12  1  0.54615800  0.54615800  0.75000000  1
  Re  Re13  1  0.45384200  0.45384200  0.25000000  1
