# generated using pymatgen
data_Sr2YTlCu2O7
_symmetry_space_group_name_H-M   'P 1'
_cell_length_a   3.83375500
_cell_length_b   3.84736500
_cell_length_c   12.19178600
_cell_angle_alpha   90.00000000
_cell_angle_beta   90.00000000
_cell_angle_gamma   90.00000000
_symmetry_Int_Tables_number   1
_chemical_formula_structural   Sr2YTlCu2O7
_chemical_formula_sum   'Sr2 Y1 Tl1 Cu2 O7'
_cell_volume   179.82707332
_cell_formula_units_Z   1
loop_
 _symmetry_equiv_pos_site_id
 _symmetry_equiv_pos_as_xyz
  1  'x, y, z'
loop_
 _atom_site_type_symbol
 _atom_site_label
 _atom_site_symmetry_multiplicity
 _atom_site_fract_x
 _atom_site_fract_y
 _atom_site_fract_z
 _atom_site_occupancy
  Sr  Sr0  1  0.50000000  0.48459600  0.79294100  1
  Sr  Sr1  1  0.50000000  0.48459600  0.20705900  1
  Y  Y2  1  0.50000000  0.49882700  0.50000000  1
  Tl  Tl3  1  0.00000000  0.93192100  0.00000000  1
  Cu  Cu4  1  0.00000000  0.99645200  0.63867900  1
  Cu  Cu5  1  0.00000000  0.99645200  0.36132100  1
  O  O6  1  0.50000000  0.99790400  0.61950300  1
  O  O7  1  0.00000000  0.49762200  0.62013300  1
  O  O8  1  0.50000000  0.99790400  0.38049700  1
  O  O9  1  0.00000000  0.49762200  0.37986700  1
  O  O10  1  0.50000000  0.55882900  0.00000000  1
  O  O11  1  0.00000000  0.99863700  0.82591400  1
  O  O12  1  0.00000000  0.99863700  0.17408600  1
