# generated using pymatgen
data_Y2AgAu
_symmetry_space_group_name_H-M   'P 1'
_cell_length_a   12.08070950
_cell_length_b   12.08070950
_cell_length_c   12.08070950
_cell_angle_alpha   124.42133285
_cell_angle_beta   118.27019091
_cell_angle_gamma   87.77038860
_symmetry_Int_Tables_number   1
_chemical_formula_structural   Y2AgAu
_chemical_formula_sum   'Y2 Ag1 Au1'
_cell_volume   1215.71937602
_cell_formula_units_Z   1
loop_
 _symmetry_equiv_pos_site_id
 _symmetry_equiv_pos_as_xyz
  1  'x, y, z'
loop_
 _atom_site_type_symbol
 _atom_site_label
 _atom_site_symmetry_multiplicity
 _atom_site_fract_x
 _atom_site_fract_y
 _atom_site_fract_z
 _atom_site_occupancy
  Y  Y0  1  0.00000000  0.26263800  0.26263800  1
  Y  Y1  1  0.00000000  0.73736200  0.73736200  1
  Ag  Ag2  1  0.00000000  0.00000000  0.00000000  1
  Au  Au3  1  0.00000000  0.50000000  0.50000000  1
