# generated using pymatgen
data_UOs2
_symmetry_space_group_name_H-M   'P 1'
_cell_length_a   5.38358300
_cell_length_b   5.38358219
_cell_length_c   8.53166300
_cell_angle_alpha   90.00000000
_cell_angle_beta   90.00000000
_cell_angle_gamma   119.99999880
_symmetry_Int_Tables_number   1
_chemical_formula_structural   UOs2
_chemical_formula_sum   'U4 Os8'
_cell_volume   214.14458183
_cell_formula_units_Z   4
loop_
 _symmetry_equiv_pos_site_id
 _symmetry_equiv_pos_as_xyz
  1  'x, y, z'
loop_
 _atom_site_type_symbol
 _atom_site_label
 _atom_site_symmetry_multiplicity
 _atom_site_fract_x
 _atom_site_fract_y
 _atom_site_fract_z
 _atom_site_occupancy
  U  U0  1  0.33333300  0.66666700  0.42421900  1
  U  U1  1  0.66666700  0.33333300  0.57578100  1
  U  U2  1  0.66666700  0.33333300  0.92421900  1
  U  U3  1  0.33333300  0.66666700  0.07578100  1
  Os  Os4  1  0.00000000  0.00000000  0.50000000  1
  Os  Os5  1  0.00000000  0.00000000  0.00000000  1
  Os  Os6  1  0.82967500  0.17032500  0.25000000  1
  Os  Os7  1  0.82967500  0.65935100  0.25000000  1
  Os  Os8  1  0.34064900  0.17032500  0.25000000  1
  Os  Os9  1  0.17032500  0.82967500  0.75000000  1
  Os  Os10  1  0.17032500  0.34064900  0.75000000  1
  Os  Os11  1  0.65935100  0.82967500  0.75000000  1
