# generated using pymatgen
data_ThSi2Ru3
_symmetry_space_group_name_H-M   'P 1'
_cell_length_a   5.64503996
_cell_length_b   5.64503996
_cell_length_c   3.62227100
_cell_angle_alpha   90.00000000
_cell_angle_beta   90.00000000
_cell_angle_gamma   119.99999954
_symmetry_Int_Tables_number   1
_chemical_formula_structural   ThSi2Ru3
_chemical_formula_sum   'Th1 Si2 Ru3'
_cell_volume   99.96445759
_cell_formula_units_Z   1
loop_
 _symmetry_equiv_pos_site_id
 _symmetry_equiv_pos_as_xyz
  1  'x, y, z'
loop_
 _atom_site_type_symbol
 _atom_site_label
 _atom_site_symmetry_multiplicity
 _atom_site_fract_x
 _atom_site_fract_y
 _atom_site_fract_z
 _atom_site_occupancy
  Th  Th0  1  0.00000000  0.00000000  0.00000000  1
  Si  Si1  1  0.33333300  0.66666700  0.00000000  1
  Si  Si2  1  0.66666700  0.33333300  0.00000000  1
  Ru  Ru3  1  0.00000000  0.50000000  0.50000000  1
  Ru  Ru4  1  0.50000000  0.50000000  0.50000000  1
  Ru  Ru5  1  0.50000000  0.00000000  0.50000000  1
