# generated using pymatgen
data_Th3Pt5
_symmetry_space_group_name_H-M   'P 1'
_cell_length_a   7.27863491
_cell_length_b   7.27863491
_cell_length_c   3.88669200
_cell_angle_alpha   90.00000000
_cell_angle_beta   90.00000000
_cell_angle_gamma   120.00000827
_symmetry_Int_Tables_number   1
_chemical_formula_structural   Th3Pt5
_chemical_formula_sum   'Th3 Pt5'
_cell_volume   178.32432720
_cell_formula_units_Z   1
loop_
 _symmetry_equiv_pos_site_id
 _symmetry_equiv_pos_as_xyz
  1  'x, y, z'
loop_
 _atom_site_type_symbol
 _atom_site_label
 _atom_site_symmetry_multiplicity
 _atom_site_fract_x
 _atom_site_fract_y
 _atom_site_fract_z
 _atom_site_occupancy
  Th  Th0  1  0.64122000  0.00000000  0.50000000  1
  Th  Th1  1  0.00000000  0.64122000  0.50000000  1
  Th  Th2  1  0.35878000  0.35878000  0.50000000  1
  Pt  Pt3  1  0.22849000  0.00000000  0.00000000  1
  Pt  Pt4  1  0.00000000  0.22849000  0.00000000  1
  Pt  Pt5  1  0.77151000  0.77151000  0.00000000  1
  Pt  Pt6  1  0.33333300  0.66666700  0.00000000  1
  Pt  Pt7  1  0.66666700  0.33333300  0.00000000  1
