# generated using pymatgen
data_Ce2In8Pd
_symmetry_space_group_name_H-M   'P 1'
_cell_length_a   4.73287300
_cell_length_b   4.73287300
_cell_length_c   12.19914700
_cell_angle_alpha   90.00000000
_cell_angle_beta   90.00000000
_cell_angle_gamma   90.00000000
_symmetry_Int_Tables_number   1
_chemical_formula_structural   Ce2In8Pd
_chemical_formula_sum   'Ce2 In8 Pd1'
_cell_volume   273.26195210
_cell_formula_units_Z   1
loop_
 _symmetry_equiv_pos_site_id
 _symmetry_equiv_pos_as_xyz
  1  'x, y, z'
loop_
 _atom_site_type_symbol
 _atom_site_label
 _atom_site_symmetry_multiplicity
 _atom_site_fract_x
 _atom_site_fract_y
 _atom_site_fract_z
 _atom_site_occupancy
  Ce  Ce0  1  0.00000000  0.00000000  0.69147800  1
  Ce  Ce1  1  0.00000000  0.00000000  0.30852200  1
  In  In2  1  0.50000000  0.00000000  0.87505400  1
  In  In3  1  0.00000000  0.50000000  0.87505400  1
  In  In4  1  0.50000000  0.00000000  0.12494600  1
  In  In5  1  0.00000000  0.50000000  0.12494600  1
  In  In6  1  0.50000000  0.50000000  0.69162500  1
  In  In7  1  0.50000000  0.50000000  0.30837500  1
  In  In8  1  0.50000000  0.00000000  0.50000000  1
  In  In9  1  0.00000000  0.50000000  0.50000000  1
  Pd  Pd10  1  0.00000000  0.00000000  0.00000000  1
