# generated using pymatgen
data_PdW
_symmetry_space_group_name_H-M   'P 1'
_cell_length_a   4.90320556
_cell_length_b   4.90320556
_cell_length_c   4.90320558
_cell_angle_alpha   33.08310891
_cell_angle_beta   33.08310891
_cell_angle_gamma   33.08311094
_symmetry_Int_Tables_number   1
_chemical_formula_structural   PdW
_chemical_formula_sum   'Pd1 W1'
_cell_volume   31.26088824
_cell_formula_units_Z   1
loop_
 _symmetry_equiv_pos_site_id
 _symmetry_equiv_pos_as_xyz
  1  'x, y, z'
loop_
 _atom_site_type_symbol
 _atom_site_label
 _atom_site_symmetry_multiplicity
 _atom_site_fract_x
 _atom_site_fract_y
 _atom_site_fract_z
 _atom_site_occupancy
  Pd  Pd0  1  0.00000000  0.00000000  0.00000000  1
  W  W1  1  0.50000000  0.50000000  0.50000000  1
