# generated using pymatgen
data_TaSeS
_symmetry_space_group_name_H-M   'P 1'
_cell_length_a   3.43332777
_cell_length_b   3.43332777
_cell_length_c   6.39995000
_cell_angle_alpha   90.00000000
_cell_angle_beta   90.00000000
_cell_angle_gamma   119.99999554
_symmetry_Int_Tables_number   1
_chemical_formula_structural   TaSeS
_chemical_formula_sum   'Ta1 Se1 S1'
_cell_volume   65.33377678
_cell_formula_units_Z   1
loop_
 _symmetry_equiv_pos_site_id
 _symmetry_equiv_pos_as_xyz
  1  'x, y, z'
loop_
 _atom_site_type_symbol
 _atom_site_label
 _atom_site_symmetry_multiplicity
 _atom_site_fract_x
 _atom_site_fract_y
 _atom_site_fract_z
 _atom_site_occupancy
  Ta  Ta0  1  0.66666700  0.33333300  0.01059700  1
  Se  Se1  1  0.33333300  0.66666700  0.74390800  1
  S  S2  1  0.00000000  0.00000000  0.24549500  1
