# generated using pymatgen
data_Ti4Cr
_symmetry_space_group_name_H-M   'P 1'
_cell_length_a   6.31085448
_cell_length_b   6.31085448
_cell_length_c   6.31085448
_cell_angle_alpha   60.00000000
_cell_angle_beta   60.00000000
_cell_angle_gamma   60.00000000
_symmetry_Int_Tables_number   1
_chemical_formula_structural   Ti4Cr
_chemical_formula_sum   'Ti8 Cr2'
_cell_volume   177.72540021
_cell_formula_units_Z   2
loop_
 _symmetry_equiv_pos_site_id
 _symmetry_equiv_pos_as_xyz
  1  'x, y, z'
loop_
 _atom_site_type_symbol
 _atom_site_label
 _atom_site_symmetry_multiplicity
 _atom_site_fract_x
 _atom_site_fract_y
 _atom_site_fract_z
 _atom_site_occupancy
  Ti  Ti0  1  0.60706000  0.60706000  0.60706000  1
  Ti  Ti1  1  0.17882100  0.60706000  0.60706000  1
  Ti  Ti2  1  0.60706000  0.17882100  0.60706000  1
  Ti  Ti3  1  0.57117900  0.14294000  0.14294000  1
  Ti  Ti4  1  0.14294000  0.14294000  0.14294000  1
  Ti  Ti5  1  0.60706000  0.60706000  0.17882100  1
  Ti  Ti6  1  0.14294000  0.57117900  0.14294000  1
  Ti  Ti7  1  0.14294000  0.14294000  0.57117900  1
  Cr  Cr8  1  0.00000000  0.00000000  0.00000000  1
  Cr  Cr9  1  0.75000000  0.75000000  0.75000000  1
