# generated using pymatgen
data_Er2I2O
_symmetry_space_group_name_H-M   'P 1'
_cell_length_a   4.21229300
_cell_length_b   4.21229300
_cell_length_c   13.89079200
_cell_angle_alpha   90.00000000
_cell_angle_beta   90.00000000
_cell_angle_gamma   90.00000000
_symmetry_Int_Tables_number   1
_chemical_formula_structural   Er2I2O
_chemical_formula_sum   'Er2 I2 O1'
_cell_volume   246.47004988
_cell_formula_units_Z   1
loop_
 _symmetry_equiv_pos_site_id
 _symmetry_equiv_pos_as_xyz
  1  'x, y, z'
loop_
 _atom_site_type_symbol
 _atom_site_label
 _atom_site_symmetry_multiplicity
 _atom_site_fract_x
 _atom_site_fract_y
 _atom_site_fract_z
 _atom_site_occupancy
  Er  Er0  1  0.50000000  0.50000000  0.14619800  1
  Er  Er1  1  0.50000000  0.50000000  0.85380200  1
  I  I2  1  0.50000000  0.50000000  0.65045200  1
  I  I3  1  0.50000000  0.50000000  0.34954800  1
  O  O4  1  0.50000000  0.50000000  0.00000000  1
