# generated using pymatgen
data_Ru3Rh
_symmetry_space_group_name_H-M   'P 1'
_cell_length_a   5.47335794
_cell_length_b   5.47335794
_cell_length_c   4.32224500
_cell_angle_alpha   90.00000000
_cell_angle_beta   90.00000000
_cell_angle_gamma   119.99999925
_symmetry_Int_Tables_number   1
_chemical_formula_structural   Ru3Rh
_chemical_formula_sum   'Ru6 Rh2'
_cell_volume   112.13668577
_cell_formula_units_Z   2
loop_
 _symmetry_equiv_pos_site_id
 _symmetry_equiv_pos_as_xyz
  1  'x, y, z'
loop_
 _atom_site_type_symbol
 _atom_site_label
 _atom_site_symmetry_multiplicity
 _atom_site_fract_x
 _atom_site_fract_y
 _atom_site_fract_z
 _atom_site_occupancy
  Ru  Ru0  1  0.16640000  0.33280000  0.25000000  1
  Ru  Ru1  1  0.66720000  0.83360000  0.25000000  1
  Ru  Ru2  1  0.16640000  0.83360000  0.25000000  1
  Ru  Ru3  1  0.83360000  0.66720000  0.75000000  1
  Ru  Ru4  1  0.33280000  0.16640000  0.75000000  1
  Ru  Ru5  1  0.83360000  0.16640000  0.75000000  1
  Rh  Rh6  1  0.33333300  0.66666700  0.75000000  1
  Rh  Rh7  1  0.66666700  0.33333300  0.25000000  1
