# generated using pymatgen
data_TcW
_symmetry_space_group_name_H-M   'P 1'
_cell_length_a   2.74342342
_cell_length_b   2.74342342
_cell_length_c   4.41507800
_cell_angle_alpha   90.00000000
_cell_angle_beta   90.00000000
_cell_angle_gamma   110.89019034
_symmetry_Int_Tables_number   1
_chemical_formula_structural   TcW
_chemical_formula_sum   'Tc1 W1'
_cell_volume   31.04519509
_cell_formula_units_Z   1
loop_
 _symmetry_equiv_pos_site_id
 _symmetry_equiv_pos_as_xyz
  1  'x, y, z'
loop_
 _atom_site_type_symbol
 _atom_site_label
 _atom_site_symmetry_multiplicity
 _atom_site_fract_x
 _atom_site_fract_y
 _atom_site_fract_z
 _atom_site_occupancy
  Tc  Tc0  1  0.00000000  0.00000000  0.00000000  1
  W  W1  1  0.50000000  0.50000000  0.50000000  1
