# generated using pymatgen
data_Sm2(SiPt)3
_symmetry_space_group_name_H-M   'P 1'
_cell_length_a   2.79101700
_cell_length_b   2.79101700
_cell_length_c   21.06120500
_cell_angle_alpha   90.00000000
_cell_angle_beta   90.00000000
_cell_angle_gamma   90.00000000
_symmetry_Int_Tables_number   1
_chemical_formula_structural   Sm2(SiPt)3
_chemical_formula_sum   'Sm2 Si3 Pt3'
_cell_volume   164.06206701
_cell_formula_units_Z   1
loop_
 _symmetry_equiv_pos_site_id
 _symmetry_equiv_pos_as_xyz
  1  'x, y, z'
loop_
 _atom_site_type_symbol
 _atom_site_label
 _atom_site_symmetry_multiplicity
 _atom_site_fract_x
 _atom_site_fract_y
 _atom_site_fract_z
 _atom_site_occupancy
  Sm  Sm0  1  0.50000000  0.50000000  0.75441500  1
  Sm  Sm1  1  0.50000000  0.50000000  0.24558500  1
  Si  Si2  1  0.50000000  0.50000000  0.38800900  1
  Si  Si3  1  0.50000000  0.50000000  0.61199100  1
  Si  Si4  1  0.50000000  0.50000000  0.00000000  1
  Pt  Pt5  1  0.50000000  0.50000000  0.11273500  1
  Pt  Pt6  1  0.50000000  0.50000000  0.88726500  1
  Pt  Pt7  1  0.50000000  0.50000000  0.50000000  1
