# generated using pymatgen
data_VPt2
_symmetry_space_group_name_H-M   'P 1'
_cell_length_a   4.83027990
_cell_length_b   4.83027990
_cell_length_c   4.83027990
_cell_angle_alpha   146.99991614
_cell_angle_beta   133.31835110
_cell_angle_gamma   58.35052455
_symmetry_Int_Tables_number   1
_chemical_formula_structural   VPt2
_chemical_formula_sum   'V1 Pt2'
_cell_volume   44.29087382
_cell_formula_units_Z   1
loop_
 _symmetry_equiv_pos_site_id
 _symmetry_equiv_pos_as_xyz
  1  'x, y, z'
loop_
 _atom_site_type_symbol
 _atom_site_label
 _atom_site_symmetry_multiplicity
 _atom_site_fract_x
 _atom_site_fract_y
 _atom_site_fract_z
 _atom_site_occupancy
  V  V0  1  0.00000000  0.00000000  0.00000000  1
  Pt  Pt1  1  0.66031500  0.66031500  0.00000000  1
  Pt  Pt2  1  0.33968500  0.33968500  0.00000000  1
