# generated using pymatgen
data_Mg2IrPt
_symmetry_space_group_name_H-M   'P 1'
_cell_length_a   10.88647645
_cell_length_b   10.88647645
_cell_length_c   10.88647645
_cell_angle_alpha   125.41359306
_cell_angle_beta   118.29278797
_cell_angle_gamma   86.93597056
_symmetry_Int_Tables_number   1
_chemical_formula_structural   Mg2IrPt
_chemical_formula_sum   'Mg2 Ir1 Pt1'
_cell_volume   880.81099516
_cell_formula_units_Z   1
loop_
 _symmetry_equiv_pos_site_id
 _symmetry_equiv_pos_as_xyz
  1  'x, y, z'
loop_
 _atom_site_type_symbol
 _atom_site_label
 _atom_site_symmetry_multiplicity
 _atom_site_fract_x
 _atom_site_fract_y
 _atom_site_fract_z
 _atom_site_occupancy
  Mg  Mg0  1  0.00000000  0.25331300  0.25331300  1
  Mg  Mg1  1  0.00000000  0.74668700  0.74668700  1
  Ir  Ir2  1  0.00000000  0.00000000  0.00000000  1
  Pt  Pt3  1  0.00000000  0.50000000  0.50000000  1
