# generated using pymatgen
data_Tb2Ni2Sn
_symmetry_space_group_name_H-M   'P 1'
_cell_length_a   5.45767863
_cell_length_b   5.45767863
_cell_length_c   5.45767863
_cell_angle_alpha   134.23253398
_cell_angle_beta   116.86045254
_cell_angle_gamma   81.40835707
_symmetry_Int_Tables_number   1
_chemical_formula_structural   Tb2Ni2Sn
_chemical_formula_sum   'Tb2 Ni2 Sn1'
_cell_volume   100.35654701
_cell_formula_units_Z   1
loop_
 _symmetry_equiv_pos_site_id
 _symmetry_equiv_pos_as_xyz
  1  'x, y, z'
loop_
 _atom_site_type_symbol
 _atom_site_label
 _atom_site_symmetry_multiplicity
 _atom_site_fract_x
 _atom_site_fract_y
 _atom_site_fract_z
 _atom_site_occupancy
  Tb  Tb0  1  0.70197600  0.20197600  0.50000000  1
  Tb  Tb1  1  0.29802400  0.79802400  0.50000000  1
  Ni  Ni2  1  0.70863200  0.50000000  0.20863200  1
  Ni  Ni3  1  0.29136800  0.50000000  0.79136800  1
  Sn  Sn4  1  0.00000000  0.00000000  0.00000000  1
