# generated using pymatgen
data_IrO3
_symmetry_space_group_name_H-M   'P 1'
_cell_length_a   5.20641672
_cell_length_b   5.20641672
_cell_length_c   3.76325100
_cell_angle_alpha   90.00000000
_cell_angle_beta   90.00000000
_cell_angle_gamma   90.14799044
_symmetry_Int_Tables_number   1
_chemical_formula_structural   IrO3
_chemical_formula_sum   'Ir2 O6'
_cell_volume   102.00925818
_cell_formula_units_Z   2
loop_
 _symmetry_equiv_pos_site_id
 _symmetry_equiv_pos_as_xyz
  1  'x, y, z'
loop_
 _atom_site_type_symbol
 _atom_site_label
 _atom_site_symmetry_multiplicity
 _atom_site_fract_x
 _atom_site_fract_y
 _atom_site_fract_z
 _atom_site_occupancy
  Ir  Ir0  1  0.49663100  0.00743300  0.50000000  1
  Ir  Ir1  1  0.99256700  0.50336900  0.50000000  1
  O  O2  1  0.17577900  0.82422100  0.50000000  1
  O  O3  1  0.66792500  0.66963200  0.50000000  1
  O  O4  1  0.33036800  0.33207500  0.50000000  1
  O  O5  1  0.83754800  0.16245200  0.50000000  1
  O  O6  1  0.50116300  0.00306000  0.00000000  1
  O  O7  1  0.99694000  0.49883700  0.00000000  1
