# generated using pymatgen
data_TaRhO4
_symmetry_space_group_name_H-M   'P 1'
_cell_length_a   4.69745397
_cell_length_b   4.69745397
_cell_length_c   3.14404700
_cell_angle_alpha   90.00000000
_cell_angle_beta   90.00000000
_cell_angle_gamma   90.61960304
_symmetry_Int_Tables_number   1
_chemical_formula_structural   TaRhO4
_chemical_formula_sum   'Ta1 Rh1 O4'
_cell_volume   69.37271650
_cell_formula_units_Z   1
loop_
 _symmetry_equiv_pos_site_id
 _symmetry_equiv_pos_as_xyz
  1  'x, y, z'
loop_
 _atom_site_type_symbol
 _atom_site_label
 _atom_site_symmetry_multiplicity
 _atom_site_fract_x
 _atom_site_fract_y
 _atom_site_fract_z
 _atom_site_occupancy
  Ta  Ta0  1  0.00000000  0.00000000  0.00000000  1
  Rh  Rh1  1  0.50000000  0.50000000  0.50000000  1
  O  O2  1  0.19105500  0.80894500  0.50000000  1
  O  O3  1  0.80894500  0.19105500  0.50000000  1
  O  O4  1  0.30092200  0.30092200  0.00000000  1
  O  O5  1  0.69907800  0.69907800  0.00000000  1
