# generated using pymatgen
data_Ca2AsI
_symmetry_space_group_name_H-M   'P 1'
_cell_length_a   7.93137043
_cell_length_b   7.93137043
_cell_length_c   7.93137073
_cell_angle_alpha   32.24141727
_cell_angle_beta   32.24141727
_cell_angle_gamma   32.24141231
_symmetry_Int_Tables_number   1
_chemical_formula_structural   Ca2AsI
_chemical_formula_sum   'Ca2 As1 I1'
_cell_volume   126.21580562
_cell_formula_units_Z   1
loop_
 _symmetry_equiv_pos_site_id
 _symmetry_equiv_pos_as_xyz
  1  'x, y, z'
loop_
 _atom_site_type_symbol
 _atom_site_label
 _atom_site_symmetry_multiplicity
 _atom_site_fract_x
 _atom_site_fract_y
 _atom_site_fract_z
 _atom_site_occupancy
  Ca  Ca0  1  0.23105300  0.23105300  0.23105300  1
  Ca  Ca1  1  0.76894700  0.76894700  0.76894700  1
  As  As2  1  0.50000000  0.50000000  0.50000000  1
  I  I3  1  0.00000000  0.00000000  0.00000000  1
