# generated using pymatgen
data_BaCl2
_symmetry_space_group_name_H-M   'P 1'
_cell_length_a   4.83301700
_cell_length_b   8.00982500
_cell_length_c   9.55041000
_cell_angle_alpha   90.00000000
_cell_angle_beta   90.00000000
_cell_angle_gamma   90.00000000
_symmetry_Int_Tables_number   1
_chemical_formula_structural   BaCl2
_chemical_formula_sum   'Ba4 Cl8'
_cell_volume   369.71184651
_cell_formula_units_Z   4
loop_
 _symmetry_equiv_pos_site_id
 _symmetry_equiv_pos_as_xyz
  1  'x, y, z'
loop_
 _atom_site_type_symbol
 _atom_site_label
 _atom_site_symmetry_multiplicity
 _atom_site_fract_x
 _atom_site_fract_y
 _atom_site_fract_z
 _atom_site_occupancy
  Ba  Ba0  1  0.25000000  0.24738300  0.88755500  1
  Ba  Ba1  1  0.75000000  0.75261700  0.11244500  1
  Ba  Ba2  1  0.25000000  0.74738300  0.61244500  1
  Ba  Ba3  1  0.75000000  0.25261700  0.38755500  1
  Cl  Cl4  1  0.25000000  0.02262600  0.16537400  1
  Cl  Cl5  1  0.75000000  0.97737400  0.83462600  1
  Cl  Cl6  1  0.25000000  0.52262600  0.33462600  1
  Cl  Cl7  1  0.75000000  0.47737400  0.66537400  1
  Cl  Cl8  1  0.75000000  0.35879000  0.07336600  1
  Cl  Cl9  1  0.25000000  0.64121000  0.92663400  1
  Cl  Cl10  1  0.75000000  0.85879000  0.42663400  1
  Cl  Cl11  1  0.25000000  0.14121000  0.57336600  1
