# generated using pymatgen
data_Ba2Y(CuO2)3
_symmetry_space_group_name_H-M   'P 1'
_cell_length_a   3.89057400
_cell_length_b   3.89057400
_cell_length_c   12.12302000
_cell_angle_alpha   90.00000000
_cell_angle_beta   90.00000000
_cell_angle_gamma   90.00000000
_symmetry_Int_Tables_number   1
_chemical_formula_structural   Ba2Y(CuO2)3
_chemical_formula_sum   'Ba2 Y1 Cu3 O6'
_cell_volume   183.50089295
_cell_formula_units_Z   1
loop_
 _symmetry_equiv_pos_site_id
 _symmetry_equiv_pos_as_xyz
  1  'x, y, z'
loop_
 _atom_site_type_symbol
 _atom_site_label
 _atom_site_symmetry_multiplicity
 _atom_site_fract_x
 _atom_site_fract_y
 _atom_site_fract_z
 _atom_site_occupancy
  Ba  Ba0  1  0.50000000  0.50000000  0.19711400  1
  Ba  Ba1  1  0.50000000  0.50000000  0.80288600  1
  Y  Y2  1  0.50000000  0.50000000  0.50000000  1
  Cu  Cu3  1  0.00000000  0.00000000  0.36812500  1
  Cu  Cu4  1  0.00000000  0.00000000  0.63187500  1
  Cu  Cu5  1  0.00000000  0.00000000  0.00000000  1
  O  O6  1  0.00000000  0.50000000  0.62090900  1
  O  O7  1  0.50000000  0.00000000  0.37909100  1
  O  O8  1  0.50000000  0.00000000  0.62090900  1
  O  O9  1  0.00000000  0.00000000  0.14934000  1
  O  O10  1  0.00000000  0.50000000  0.37909100  1
  O  O11  1  0.00000000  0.00000000  0.85066000  1
