# generated using pymatgen
data_Ba(CoAs)2
_symmetry_space_group_name_H-M   'P 1'
_cell_length_a   6.92374963
_cell_length_b   6.92374963
_cell_length_c   6.92374963
_cell_angle_alpha   146.49828554
_cell_angle_beta   146.49828554
_cell_angle_gamma   48.10723118
_symmetry_Int_Tables_number   1
_chemical_formula_structural   Ba(CoAs)2
_chemical_formula_sum   'Ba1 Co2 As2'
_cell_volume   100.70544067
_cell_formula_units_Z   1
loop_
 _symmetry_equiv_pos_site_id
 _symmetry_equiv_pos_as_xyz
  1  'x, y, z'
loop_
 _atom_site_type_symbol
 _atom_site_label
 _atom_site_symmetry_multiplicity
 _atom_site_fract_x
 _atom_site_fract_y
 _atom_site_fract_z
 _atom_site_occupancy
  Ba  Ba0  1  0.00000000  0.00000000  0.00000000  1
  Co  Co1  1  0.75000000  0.25000000  0.50000000  1
  Co  Co2  1  0.25000000  0.75000000  0.50000000  1
  As  As3  1  0.65427900  0.65427900  0.00000000  1
  As  As4  1  0.34572100  0.34572100  0.00000000  1
