# generated using pymatgen
data_TiGa3
_symmetry_space_group_name_H-M   'P 1'
_cell_length_a   5.16503618
_cell_length_b   5.16503618
_cell_length_c   5.16503618
_cell_angle_alpha   136.76381475
_cell_angle_beta   136.76381475
_cell_angle_gamma   62.80165021
_symmetry_Int_Tables_number   1
_chemical_formula_structural   TiGa3
_chemical_formula_sum   'Ti1 Ga3'
_cell_volume   63.85393289
_cell_formula_units_Z   1
loop_
 _symmetry_equiv_pos_site_id
 _symmetry_equiv_pos_as_xyz
  1  'x, y, z'
loop_
 _atom_site_type_symbol
 _atom_site_label
 _atom_site_symmetry_multiplicity
 _atom_site_fract_x
 _atom_site_fract_y
 _atom_site_fract_z
 _atom_site_occupancy
  Ti  Ti0  1  0.00000000  0.00000000  0.00000000  1
  Ga  Ga1  1  0.75000000  0.25000000  0.50000000  1
  Ga  Ga2  1  0.25000000  0.75000000  0.50000000  1
  Ga  Ga3  1  0.50000000  0.50000000  0.00000000  1
