# generated using pymatgen
data_Zr2Pd
_symmetry_space_group_name_H-M   'P 1'
_cell_length_a   5.91909309
_cell_length_b   5.91909309
_cell_length_c   5.91909309
_cell_angle_alpha   147.04264666
_cell_angle_beta   147.04264666
_cell_angle_gamma   47.30064102
_symmetry_Int_Tables_number   1
_chemical_formula_structural   Zr2Pd
_chemical_formula_sum   'Zr2 Pd1'
_cell_volume   61.13890406
_cell_formula_units_Z   1
loop_
 _symmetry_equiv_pos_site_id
 _symmetry_equiv_pos_as_xyz
  1  'x, y, z'
loop_
 _atom_site_type_symbol
 _atom_site_label
 _atom_site_symmetry_multiplicity
 _atom_site_fract_x
 _atom_site_fract_y
 _atom_site_fract_z
 _atom_site_occupancy
  Zr  Zr0  1  0.65669500  0.65669500  0.00000000  1
  Zr  Zr1  1  0.34330500  0.34330500  0.00000000  1
  Pd  Pd2  1  0.00000000  0.00000000  0.00000000  1
