# generated using pymatgen
data_Ti2PbC
_symmetry_space_group_name_H-M   'P 1'
_cell_length_a   3.22660261
_cell_length_b   3.22660261
_cell_length_c   14.06036400
_cell_angle_alpha   90.00000000
_cell_angle_beta   90.00000000
_cell_angle_gamma   120.00001243
_symmetry_Int_Tables_number   1
_chemical_formula_structural   Ti2PbC
_chemical_formula_sum   'Ti4 Pb2 C2'
_cell_volume   126.77047040
_cell_formula_units_Z   2
loop_
 _symmetry_equiv_pos_site_id
 _symmetry_equiv_pos_as_xyz
  1  'x, y, z'
loop_
 _atom_site_type_symbol
 _atom_site_label
 _atom_site_symmetry_multiplicity
 _atom_site_fract_x
 _atom_site_fract_y
 _atom_site_fract_z
 _atom_site_occupancy
  Ti  Ti0  1  0.66666700  0.33333300  0.92321000  1
  Ti  Ti1  1  0.33333300  0.66666700  0.07679000  1
  Ti  Ti2  1  0.33333300  0.66666700  0.42321000  1
  Ti  Ti3  1  0.66666700  0.33333300  0.57679000  1
  Pb  Pb4  1  0.33333300  0.66666700  0.75000000  1
  Pb  Pb5  1  0.66666700  0.33333300  0.25000000  1
  C  C6  1  0.00000000  0.00000000  0.00000000  1
  C  C7  1  0.00000000  0.00000000  0.50000000  1
