# generated using pymatgen
data_TaPt2
_symmetry_space_group_name_H-M   'P 1'
_cell_length_a   4.89223684
_cell_length_b   4.89223684
_cell_length_c   4.79069500
_cell_angle_alpha   90.00000000
_cell_angle_beta   90.00000000
_cell_angle_gamma   120.52567318
_symmetry_Int_Tables_number   1
_chemical_formula_structural   TaPt2
_chemical_formula_sum   'Ta2 Pt4'
_cell_volume   98.76866222
_cell_formula_units_Z   2
loop_
 _symmetry_equiv_pos_site_id
 _symmetry_equiv_pos_as_xyz
  1  'x, y, z'
loop_
 _atom_site_type_symbol
 _atom_site_label
 _atom_site_symmetry_multiplicity
 _atom_site_fract_x
 _atom_site_fract_y
 _atom_site_fract_z
 _atom_site_occupancy
  Ta  Ta0  1  0.77161700  0.77161700  0.25000000  1
  Ta  Ta1  1  0.22838300  0.22838300  0.75000000  1
  Pt  Pt2  1  0.12172300  0.44566900  0.25000000  1
  Pt  Pt3  1  0.55433100  0.87827700  0.75000000  1
  Pt  Pt4  1  0.87827700  0.55433100  0.75000000  1
  Pt  Pt5  1  0.44566900  0.12172300  0.25000000  1
