# generated using pymatgen
data_Sc2In
_symmetry_space_group_name_H-M   'P 1'
_cell_length_a   5.05846148
_cell_length_b   5.05846148
_cell_length_c   6.29980300
_cell_angle_alpha   90.00000000
_cell_angle_beta   90.00000000
_cell_angle_gamma   119.99999325
_symmetry_Int_Tables_number   1
_chemical_formula_structural   Sc2In
_chemical_formula_sum   'Sc4 In2'
_cell_volume   139.60292737
_cell_formula_units_Z   2
loop_
 _symmetry_equiv_pos_site_id
 _symmetry_equiv_pos_as_xyz
  1  'x, y, z'
loop_
 _atom_site_type_symbol
 _atom_site_label
 _atom_site_symmetry_multiplicity
 _atom_site_fract_x
 _atom_site_fract_y
 _atom_site_fract_z
 _atom_site_occupancy
  Sc  Sc0  1  0.00000000  0.00000000  0.00000000  1
  Sc  Sc1  1  0.00000000  0.00000000  0.50000000  1
  Sc  Sc2  1  0.33333300  0.66666700  0.75000000  1
  Sc  Sc3  1  0.66666700  0.33333300  0.25000000  1
  In  In4  1  0.33333300  0.66666700  0.25000000  1
  In  In5  1  0.66666700  0.33333300  0.75000000  1
