# generated using pymatgen
data_Tm2Cu2O5
_symmetry_space_group_name_H-M   'P 1'
_cell_length_a   3.45893800
_cell_length_b   10.81812800
_cell_length_c   12.43445800
_cell_angle_alpha   90.00000000
_cell_angle_beta   90.00000000
_cell_angle_gamma   90.00000000
_symmetry_Int_Tables_number   1
_chemical_formula_structural   Tm2Cu2O5
_chemical_formula_sum   'Tm8 Cu8 O20'
_cell_volume   465.28789391
_cell_formula_units_Z   4
loop_
 _symmetry_equiv_pos_site_id
 _symmetry_equiv_pos_as_xyz
  1  'x, y, z'
loop_
 _atom_site_type_symbol
 _atom_site_label
 _atom_site_symmetry_multiplicity
 _atom_site_fract_x
 _atom_site_fract_y
 _atom_site_fract_z
 _atom_site_occupancy
  Tm  Tm0  1  0.27648400  0.54244000  0.82966800  1
  Tm  Tm1  1  0.72351600  0.45756000  0.32966800  1
  Tm  Tm2  1  0.22351600  0.04244000  0.82966800  1
  Tm  Tm3  1  0.77648400  0.95756000  0.32966800  1
  Tm  Tm4  1  0.27755500  0.70762600  0.50177900  1
  Tm  Tm5  1  0.72244500  0.29237400  0.00177900  1
  Tm  Tm6  1  0.22244500  0.20762600  0.50177900  1
  Tm  Tm7  1  0.77755500  0.79237400  0.00177900  1
  Cu  Cu8  1  0.84481700  0.76160300  0.71896200  1
  Cu  Cu9  1  0.15518300  0.23839700  0.21896200  1
  Cu  Cu10  1  0.65518300  0.26160300  0.71896200  1
  Cu  Cu11  1  0.34481700  0.73839700  0.21896200  1
  Cu  Cu12  1  0.84035500  0.48858100  0.61207600  1
  Cu  Cu13  1  0.15964500  0.51141900  0.11207600  1
  Cu  Cu14  1  0.65964500  0.98858100  0.61207600  1
  Cu  Cu15  1  0.34035500  0.01141900  0.11207600  1
  O  O16  1  0.27202700  0.92237500  0.97199400  1
  O  O17  1  0.72797300  0.07762500  0.47199400  1
  O  O18  1  0.22797300  0.42237500  0.97199400  1
  O  O19  1  0.77202700  0.57762500  0.47199400  1
  O  O20  1  0.72443200  0.92926800  0.76427500  1
  O  O21  1  0.27556800  0.07073200  0.26427500  1
  O  O22  1  0.77556800  0.42926800  0.76427500  1
  O  O23  1  0.22443200  0.57073200  0.26427500  1
  O  O24  1  0.16586600  0.62462100  0.66563700  1
  O  O25  1  0.83413400  0.37537900  0.16563700  1
  O  O26  1  0.33413400  0.12462100  0.66563700  1
  O  O27  1  0.66586600  0.87537900  0.16563700  1
  O  O28  1  0.78089600  0.82105900  0.56642100  1
  O  O29  1  0.21910400  0.17894100  0.06642100  1
  O  O30  1  0.71910400  0.32105900  0.56642100  1
  O  O31  1  0.28089600  0.67894100  0.06642100  1
  O  O32  1  0.27562200  0.82750100  0.35898700  1
  O  O33  1  0.72437800  0.17249900  0.85898700  1
  O  O34  1  0.22437800  0.32750100  0.35898700  1
  O  O35  1  0.77562200  0.67249900  0.85898700  1
