# generated using pymatgen
data_Ba(FeP)2
_symmetry_space_group_name_H-M   'P 1'
_cell_length_a   6.74067204
_cell_length_b   6.74067204
_cell_length_c   6.74067204
_cell_angle_alpha   146.99021802
_cell_angle_beta   146.99021802
_cell_angle_gamma   47.37826625
_symmetry_Int_Tables_number   1
_chemical_formula_structural   Ba(FeP)2
_chemical_formula_sum   'Ba1 Fe2 P2'
_cell_volume   90.54721308
_cell_formula_units_Z   1
loop_
 _symmetry_equiv_pos_site_id
 _symmetry_equiv_pos_as_xyz
  1  'x, y, z'
loop_
 _atom_site_type_symbol
 _atom_site_label
 _atom_site_symmetry_multiplicity
 _atom_site_fract_x
 _atom_site_fract_y
 _atom_site_fract_z
 _atom_site_occupancy
  Ba  Ba0  1  0.00000000  0.00000000  0.00000000  1
  Fe  Fe1  1  0.75000000  0.25000000  0.50000000  1
  Fe  Fe2  1  0.25000000  0.75000000  0.50000000  1
  P  P3  1  0.66145600  0.66145600  0.00000000  1
  P  P4  1  0.33854400  0.33854400  0.00000000  1
