# generated using pymatgen
data_Ca3Sn13Rh4
_symmetry_space_group_name_H-M   'P 1'
_cell_length_a   9.84313000
_cell_length_b   9.84313000
_cell_length_c   9.84313000
_cell_angle_alpha   90.00000000
_cell_angle_beta   90.00000000
_cell_angle_gamma   90.00000000
_symmetry_Int_Tables_number   1
_chemical_formula_structural   Ca3Sn13Rh4
_chemical_formula_sum   'Ca6 Sn26 Rh8'
_cell_volume   953.67338562
_cell_formula_units_Z   2
loop_
 _symmetry_equiv_pos_site_id
 _symmetry_equiv_pos_as_xyz
  1  'x, y, z'
loop_
 _atom_site_type_symbol
 _atom_site_label
 _atom_site_symmetry_multiplicity
 _atom_site_fract_x
 _atom_site_fract_y
 _atom_site_fract_z
 _atom_site_occupancy
  Ca  Ca0  1  0.25000000  0.50000000  0.00000000  1
  Ca  Ca1  1  0.75000000  0.50000000  0.00000000  1
  Ca  Ca2  1  0.50000000  0.00000000  0.25000000  1
  Ca  Ca3  1  0.50000000  0.00000000  0.75000000  1
  Ca  Ca4  1  0.00000000  0.75000000  0.50000000  1
  Ca  Ca5  1  0.00000000  0.25000000  0.50000000  1
  Sn  Sn6  1  0.00000000  0.00000000  0.00000000  1
  Sn  Sn7  1  0.50000000  0.50000000  0.50000000  1
  Sn  Sn8  1  0.00000000  0.30394700  0.15335300  1
  Sn  Sn9  1  0.50000000  0.34664700  0.80394700  1
  Sn  Sn10  1  0.50000000  0.65335300  0.19605300  1
  Sn  Sn11  1  0.65335300  0.80394700  0.50000000  1
  Sn  Sn12  1  0.34664700  0.80394700  0.50000000  1
  Sn  Sn13  1  0.19605300  0.50000000  0.65335300  1
  Sn  Sn14  1  0.80394700  0.50000000  0.65335300  1
  Sn  Sn15  1  0.15335300  0.00000000  0.30394700  1
  Sn  Sn16  1  0.30394700  0.15335300  0.00000000  1
  Sn  Sn17  1  0.69605300  0.84664700  0.00000000  1
  Sn  Sn18  1  0.15335300  0.00000000  0.69605300  1
  Sn  Sn19  1  0.69605300  0.15335300  0.00000000  1
  Sn  Sn20  1  0.84664700  0.00000000  0.30394700  1
  Sn  Sn21  1  0.84664700  0.00000000  0.69605300  1
  Sn  Sn22  1  0.30394700  0.84664700  0.00000000  1
  Sn  Sn23  1  0.00000000  0.69605300  0.84664700  1
  Sn  Sn24  1  0.00000000  0.30394700  0.84664700  1
  Sn  Sn25  1  0.00000000  0.69605300  0.15335300  1
  Sn  Sn26  1  0.80394700  0.50000000  0.34664700  1
  Sn  Sn27  1  0.19605300  0.50000000  0.34664700  1
  Sn  Sn28  1  0.65335300  0.19605300  0.50000000  1
  Sn  Sn29  1  0.34664700  0.19605300  0.50000000  1
  Sn  Sn30  1  0.50000000  0.65335300  0.80394700  1
  Sn  Sn31  1  0.50000000  0.34664700  0.19605300  1
  Rh  Rh32  1  0.25000000  0.25000000  0.25000000  1
  Rh  Rh33  1  0.75000000  0.25000000  0.75000000  1
  Rh  Rh34  1  0.75000000  0.75000000  0.25000000  1
  Rh  Rh35  1  0.25000000  0.75000000  0.75000000  1
  Rh  Rh36  1  0.75000000  0.75000000  0.75000000  1
  Rh  Rh37  1  0.25000000  0.75000000  0.25000000  1
  Rh  Rh38  1  0.25000000  0.25000000  0.75000000  1
  Rh  Rh39  1  0.75000000  0.25000000  0.25000000  1
