# generated using pymatgen
data_K4Nb2Si8O23
_symmetry_space_group_name_H-M   'P 1'
_cell_length_a   6.88260900
_cell_length_b   7.96334539
_cell_length_c   11.16331181
_cell_angle_alpha   104.08304556
_cell_angle_beta   89.20216188
_cell_angle_gamma   107.92376630
_symmetry_Int_Tables_number   1
_chemical_formula_structural   K4Nb2Si8O23
_chemical_formula_sum   'K4 Nb2 Si8 O23'
_cell_volume   563.42032084
_cell_formula_units_Z   1
loop_
 _symmetry_equiv_pos_site_id
 _symmetry_equiv_pos_as_xyz
  1  'x, y, z'
loop_
 _atom_site_type_symbol
 _atom_site_label
 _atom_site_symmetry_multiplicity
 _atom_site_fract_x
 _atom_site_fract_y
 _atom_site_fract_z
 _atom_site_occupancy
  K  K0  1  0.27754900  0.24368100  0.48101800  1
  K  K1  1  0.72245100  0.75631900  0.51898200  1
  K  K2  1  0.33262500  0.29870400  0.14790000  1
  K  K3  1  0.66737500  0.70129600  0.85210000  1
  Nb  Nb4  1  0.78489000  0.27303500  0.31020200  1
  Nb  Nb5  1  0.21511000  0.72696500  0.68979800  1
  Si  Si6  1  0.96982400  0.89429700  0.21219000  1
  Si  Si7  1  0.03017600  0.10570300  0.78781000  1
  Si  Si8  1  0.17305500  0.69612300  0.37597400  1
  Si  Si9  1  0.82694500  0.30387700  0.62402600  1
  Si  Si10  1  0.51389200  0.81808900  0.21484600  1
  Si  Si11  1  0.48610800  0.18191100  0.78515400  1
  Si  Si12  1  0.16917500  0.69595200  0.00474900  1
  Si  Si13  1  0.83082500  0.30404800  0.99525100  1
  O  O14  1  0.37481800  0.70855800  0.08423300  1
  O  O15  1  0.62518200  0.29144200  0.91576700  1
  O  O16  1  0.40584800  0.72236000  0.32491800  1
  O  O17  1  0.59415200  0.27764000  0.67508200  1
  O  O18  1  0.72690800  0.76855200  0.18967300  1
  O  O19  1  0.27309200  0.23144800  0.81032700  1
  O  O20  1  0.54769500  0.03367700  0.25400900  1
  O  O21  1  0.45230500  0.96632300  0.74599100  1
  O  O22  1  0.05075100  0.47938100  0.33833100  1
  O  O23  1  0.94924900  0.52061900  0.66166900  1
  O  O24  1  0.00234900  0.10762600  0.26054800  1
  O  O25  1  0.99765100  0.89237400  0.73945200  1
  O  O26  1  0.61418900  0.40359300  0.36340900  1
  O  O27  1  0.38581100  0.59640700  0.63659100  1
  O  O28  1  0.07440800  0.85549100  0.07791100  1
  O  O29  1  0.92559200  0.14450900  0.92208900  1
  O  O30  1  0.76971900  0.28306100  0.13056000  1
  O  O31  1  0.23028100  0.71693900  0.86944000  1
  O  O32  1  0.00000000  0.50000000  0.00000000  1
  O  O33  1  0.06891400  0.81506600  0.31083500  1
  O  O34  1  0.93108600  0.18493400  0.68916500  1
  O  O35  1  0.81826300  0.21787200  0.47648800  1
  O  O36  1  0.18173700  0.78212800  0.52351200  1
