# generated using pymatgen
data_Ho2Cu2O5
_symmetry_space_group_name_H-M   'P 1'
_cell_length_a   3.50962900
_cell_length_b   10.88107400
_cell_length_c   12.51726400
_cell_angle_alpha   90.00000000
_cell_angle_beta   90.00000000
_cell_angle_gamma   90.00000000
_symmetry_Int_Tables_number   1
_chemical_formula_structural   Ho2Cu2O5
_chemical_formula_sum   'Ho8 Cu8 O20'
_cell_volume   478.01594760
_cell_formula_units_Z   4
loop_
 _symmetry_equiv_pos_site_id
 _symmetry_equiv_pos_as_xyz
  1  'x, y, z'
loop_
 _atom_site_type_symbol
 _atom_site_label
 _atom_site_symmetry_multiplicity
 _atom_site_fract_x
 _atom_site_fract_y
 _atom_site_fract_z
 _atom_site_occupancy
  Ho  Ho0  1  0.27751100  0.54267200  0.83053600  1
  Ho  Ho1  1  0.72248900  0.45732800  0.33053600  1
  Ho  Ho2  1  0.22248900  0.04267200  0.83053600  1
  Ho  Ho3  1  0.77751100  0.95732800  0.33053600  1
  Ho  Ho4  1  0.27882800  0.70753400  0.50290200  1
  Ho  Ho5  1  0.72117200  0.29246600  0.00290200  1
  Ho  Ho6  1  0.22117200  0.20753400  0.50290200  1
  Ho  Ho7  1  0.77882800  0.79246600  0.00290200  1
  Cu  Cu8  1  0.84370200  0.76191400  0.71943500  1
  Cu  Cu9  1  0.15629800  0.23808600  0.21943500  1
  Cu  Cu10  1  0.65629800  0.26191400  0.71943500  1
  Cu  Cu11  1  0.34370200  0.73808600  0.21943500  1
  Cu  Cu12  1  0.83973300  0.48847700  0.61347800  1
  Cu  Cu13  1  0.16026700  0.51152300  0.11347800  1
  Cu  Cu14  1  0.66026700  0.98847700  0.61347800  1
  Cu  Cu15  1  0.33973300  0.01152300  0.11347800  1
  O  O16  1  0.27260500  0.92306300  0.97411600  1
  O  O17  1  0.72739500  0.07693700  0.47411600  1
  O  O18  1  0.22739500  0.42306300  0.97411600  1
  O  O19  1  0.77260500  0.57693700  0.47411600  1
  O  O20  1  0.72459200  0.92848200  0.76464400  1
  O  O21  1  0.27540800  0.07151800  0.26464400  1
  O  O22  1  0.77540800  0.42848200  0.76464400  1
  O  O23  1  0.22459200  0.57151800  0.26464400  1
  O  O24  1  0.15525100  0.62471900  0.66665800  1
  O  O25  1  0.84474900  0.37528100  0.16665800  1
  O  O26  1  0.34474900  0.12471900  0.66665800  1
  O  O27  1  0.65525100  0.87528100  0.16665800  1
  O  O28  1  0.78099200  0.82206200  0.56783800  1
  O  O29  1  0.21900800  0.17793800  0.06783800  1
  O  O30  1  0.71900800  0.32206200  0.56783800  1
  O  O31  1  0.28099200  0.67793800  0.06783800  1
  O  O32  1  0.27503200  0.82669000  0.35869300  1
  O  O33  1  0.72496800  0.17331000  0.85869300  1
  O  O34  1  0.22496800  0.32669000  0.35869300  1
  O  O35  1  0.77503200  0.67331000  0.85869300  1
