# generated using pymatgen
data_Na2SiH16O11
_symmetry_space_group_name_H-M   'P 1'
_cell_length_a   13.54014800
_cell_length_b   8.93720900
_cell_length_c   10.05433560
_cell_angle_alpha   60.59700474
_cell_angle_beta   90.00000000
_cell_angle_gamma   90.00000000
_symmetry_Int_Tables_number   1
_chemical_formula_structural   Na2SiH16O11
_chemical_formula_sum   'Na8 Si4 H64 O44'
_cell_volume   1059.96289058
_cell_formula_units_Z   4
loop_
 _symmetry_equiv_pos_site_id
 _symmetry_equiv_pos_as_xyz
  1  'x, y, z'
loop_
 _atom_site_type_symbol
 _atom_site_label
 _atom_site_symmetry_multiplicity
 _atom_site_fract_x
 _atom_site_fract_y
 _atom_site_fract_z
 _atom_site_occupancy
  Na  Na0  1  0.76579500  0.33877400  0.74340600  1
  Na  Na1  1  0.26579500  0.66122600  0.75659400  1
  Na  Na2  1  0.23420500  0.66122600  0.25659400  1
  Na  Na3  1  0.73420500  0.33877400  0.24340600  1
  Na  Na4  1  0.92463600  0.34764300  0.01239000  1
  Na  Na5  1  0.42463600  0.65235700  0.48761000  1
  Na  Na6  1  0.07536400  0.65235700  0.98761000  1
  Na  Na7  1  0.57536400  0.34764300  0.51239000  1
  Si  Si8  1  0.92115100  0.71144800  0.49480600  1
  Si  Si9  1  0.42115100  0.28855200  0.00519400  1
  Si  Si10  1  0.07884900  0.28855200  0.50519400  1
  Si  Si11  1  0.57884900  0.71144800  0.99480600  1
  H  H12  1  0.96986300  0.95860700  0.27765200  1
  H  H13  1  0.46986300  0.04139300  0.22234800  1
  H  H14  1  0.03013700  0.04139300  0.72234800  1
  H  H15  1  0.53013700  0.95860700  0.77765200  1
  H  H16  1  0.90464700  0.46518600  0.48163000  1
  H  H17  1  0.40464700  0.53481400  0.01837000  1
  H  H18  1  0.09535300  0.53481400  0.51837000  1
  H  H19  1  0.59535300  0.46518600  0.98163000  1
  H  H20  1  0.81914400  0.04906800  0.22633000  1
  H  H21  1  0.31914400  0.95093200  0.27367000  1
  H  H22  1  0.18085600  0.95093200  0.77367000  1
  H  H23  1  0.68085600  0.04906800  0.72633000  1
  H  H24  1  0.74507800  0.14246300  0.08431700  1
  H  H25  1  0.24507800  0.85753700  0.41568300  1
  H  H26  1  0.25492200  0.85753700  0.91568300  1
  H  H27  1  0.75492200  0.14246300  0.58431700  1
  H  H28  1  0.94503400  0.45130200  0.25585000  1
  H  H29  1  0.44503400  0.54869800  0.24415000  1
  H  H30  1  0.05496600  0.54869800  0.74415000  1
  H  H31  1  0.55496600  0.45130200  0.75585000  1
  H  H32  1  0.89222200  0.61602300  0.11862400  1
  H  H33  1  0.39222200  0.38397700  0.38137600  1
  H  H34  1  0.10777800  0.38397700  0.88137600  1
  H  H35  1  0.60777800  0.61602300  0.61862400  1
  H  H36  1  0.96809700  0.18735800  0.80716700  1
  H  H37  1  0.46809700  0.81264200  0.69283300  1
  H  H38  1  0.03190300  0.81264200  0.19283300  1
  H  H39  1  0.53190300  0.18735800  0.30716700  1
  H  H40  1  0.89000200  0.06921200  0.92983200  1
  H  H41  1  0.39000200  0.93078800  0.57016800  1
  H  H42  1  0.10999800  0.93078800  0.07016800  1
  H  H43  1  0.60999800  0.06921200  0.42983200  1
  H  H44  1  0.88872200  0.20771200  0.46051400  1
  H  H45  1  0.38872200  0.79228800  0.03948600  1
  H  H46  1  0.11127800  0.79228800  0.53948600  1
  H  H47  1  0.61127800  0.20771200  0.96051400  1
  H  H48  1  0.84731100  0.01803800  0.49732900  1
  H  H49  1  0.34731100  0.98196200  0.00267100  1
  H  H50  1  0.15268900  0.98196200  0.50267100  1
  H  H51  1  0.65268900  0.01803800  0.99732900  1
  H  H52  1  0.81801100  0.63229800  0.74956700  1
  H  H53  1  0.31801100  0.36770200  0.75043300  1
  H  H54  1  0.18198900  0.36770200  0.25043300  1
  H  H55  1  0.68198900  0.63229800  0.24956700  1
  H  H56  1  0.74244100  0.54992100  0.89269100  1
  H  H57  1  0.24244100  0.45007900  0.60730900  1
  H  H58  1  0.25755900  0.45007900  0.10730900  1
  H  H59  1  0.75755900  0.54992100  0.39269100  1
  H  H60  1  0.92326900  0.83615500  0.71443400  1
  H  H61  1  0.42326900  0.16384500  0.78556600  1
  H  H62  1  0.07673100  0.16384500  0.28556600  1
  H  H63  1  0.57673100  0.83615500  0.21443400  1
  H  H64  1  0.90630400  0.85825600  0.86079800  1
  H  H65  1  0.40630400  0.14174400  0.63920200  1
  H  H66  1  0.09369600  0.14174400  0.13920200  1
  H  H67  1  0.59369600  0.85825600  0.36079800  1
  H  H68  1  0.76645200  0.82592200  0.05775900  1
  H  H69  1  0.26645200  0.17407800  0.44224100  1
  H  H70  1  0.23354800  0.17407800  0.94224100  1
  H  H71  1  0.73354800  0.82592200  0.55775900  1
  H  H72  1  0.86360500  0.84154900  0.14296200  1
  H  H73  1  0.36360500  0.15845100  0.35703800  1
  H  H74  1  0.13639500  0.15845100  0.85703800  1
  H  H75  1  0.63639500  0.84154900  0.64296200  1
  O  O76  1  0.03222900  0.65220700  0.55947800  1
  O  O77  1  0.53222900  0.34779300  0.94052200  1
  O  O78  1  0.96777100  0.34779300  0.44052200  1
  O  O79  1  0.46777100  0.65220700  0.05947800  1
  O  O80  1  0.85769200  0.79618900  0.57931200  1
  O  O81  1  0.35769200  0.20381100  0.92068800  1
  O  O82  1  0.14230800  0.20381100  0.42068800  1
  O  O83  1  0.64230800  0.79618900  0.07931200  1
  O  O84  1  0.92720100  0.85587900  0.30362100  1
  O  O85  1  0.42720100  0.14412100  0.19637900  1
  O  O86  1  0.07279900  0.14412100  0.69637900  1
  O  O87  1  0.57279900  0.85587900  0.80362100  1
  O  O88  1  0.85934400  0.54535200  0.50214300  1
  O  O89  1  0.35934400  0.45464800  0.99785700  1
  O  O90  1  0.14065600  0.45464800  0.49785700  1
  O  O91  1  0.64065600  0.54535200  0.00214300  1
  O  O92  1  0.79166600  0.16102400  0.15395000  1
  O  O93  1  0.29166600  0.83897600  0.34605000  1
  O  O94  1  0.20833400  0.83897600  0.84605000  1
  O  O95  1  0.70833400  0.16102400  0.65395000  1
  O  O96  1  0.92570100  0.50718000  0.14410400  1
  O  O97  1  0.42570100  0.49282000  0.35589600  1
  O  O98  1  0.07429900  0.49282000  0.85589600  1
  O  O99  1  0.57429900  0.50718000  0.64410400  1
  O  O100  1  0.91525900  0.18801100  0.87401200  1
  O  O101  1  0.41525900  0.81198900  0.62598800  1
  O  O102  1  0.08474100  0.81198900  0.12598800  1
  O  O103  1  0.58474100  0.18801100  0.37401200  1
  O  O104  1  0.82800700  0.13946200  0.46216800  1
  O  O105  1  0.32800700  0.86053800  0.03783200  1
  O  O106  1  0.17199300  0.86053800  0.53783200  1
  O  O107  1  0.67199300  0.13946200  0.96216800  1
  O  O108  1  0.79835500  0.52383100  0.84340900  1
  O  O109  1  0.29835500  0.47616900  0.65659100  1
  O  O110  1  0.20164500  0.47616900  0.15659100  1
  O  O111  1  0.70164500  0.52383100  0.34340900  1
  O  O112  1  0.95733700  0.85975600  0.79083000  1
  O  O113  1  0.45733700  0.14024400  0.70917000  1
  O  O114  1  0.04266300  0.14024400  0.20917000  1
  O  O115  1  0.54266300  0.85975600  0.29083000  1
  O  O116  1  0.84094500  0.83914500  0.05034800  1
  O  O117  1  0.34094500  0.16085500  0.44965200  1
  O  O118  1  0.15905500  0.16085500  0.94965200  1
  O  O119  1  0.65905500  0.83914500  0.55034800  1
