# generated using pymatgen
data_ZnGaNO
_symmetry_space_group_name_H-M   'P 1'
_cell_length_a   3.26998200
_cell_length_b   5.30466400
_cell_length_c   5.62373900
_cell_angle_alpha   90.00000000
_cell_angle_beta   90.00000000
_cell_angle_gamma   90.00000000
_symmetry_Int_Tables_number   1
_chemical_formula_structural   ZnGaNO
_chemical_formula_sum   'Zn2 Ga2 N2 O2'
_cell_volume   97.55025285
_cell_formula_units_Z   2
loop_
 _symmetry_equiv_pos_site_id
 _symmetry_equiv_pos_as_xyz
  1  'x, y, z'
loop_
 _atom_site_type_symbol
 _atom_site_label
 _atom_site_symmetry_multiplicity
 _atom_site_fract_x
 _atom_site_fract_y
 _atom_site_fract_z
 _atom_site_occupancy
  Zn  Zn0  1  0.50000000  0.48996600  0.82158000  1
  Zn  Zn1  1  0.50000000  0.98996600  0.17842000  1
  Ga  Ga2  1  0.00000000  0.00751500  0.65209700  1
  Ga  Ga3  1  0.00000000  0.50751500  0.34790300  1
  N  N4  1  0.00000000  0.36654800  0.66059100  1
  N  N5  1  0.00000000  0.86654800  0.33940900  1
  O  O6  1  0.50000000  0.88996700  0.82157300  1
  O  O7  1  0.50000000  0.38996700  0.17842700  1
