# generated using pymatgen
data_Sr4Sn2Se9
_symmetry_space_group_name_H-M   'P 1'
_cell_length_a   8.75344200
_cell_length_b   12.12112600
_cell_length_c   16.36044000
_cell_angle_alpha   90.00000000
_cell_angle_beta   90.00000000
_cell_angle_gamma   90.00000000
_symmetry_Int_Tables_number   1
_chemical_formula_structural   Sr4Sn2Se9
_chemical_formula_sum   'Sr16 Sn8 Se36'
_cell_volume   1735.86842577
_cell_formula_units_Z   4
loop_
 _symmetry_equiv_pos_site_id
 _symmetry_equiv_pos_as_xyz
  1  'x, y, z'
loop_
 _atom_site_type_symbol
 _atom_site_label
 _atom_site_symmetry_multiplicity
 _atom_site_fract_x
 _atom_site_fract_y
 _atom_site_fract_z
 _atom_site_occupancy
  Sr  Sr0  1  0.74708200  0.11228400  0.67370300  1
  Sr  Sr1  1  0.24892900  0.25414400  0.92770900  1
  Sr  Sr2  1  0.74708200  0.61228400  0.82629700  1
  Sr  Sr3  1  0.25291800  0.11228400  0.67370300  1
  Sr  Sr4  1  0.25291800  0.88771600  0.32629700  1
  Sr  Sr5  1  0.25291800  0.61228400  0.82629700  1
  Sr  Sr6  1  0.24892900  0.75414400  0.57229100  1
  Sr  Sr7  1  0.75107100  0.25414400  0.92770900  1
  Sr  Sr8  1  0.74708200  0.38771600  0.17370300  1
  Sr  Sr9  1  0.25291800  0.38771600  0.17370300  1
  Sr  Sr10  1  0.24892900  0.24585600  0.42770900  1
  Sr  Sr11  1  0.75107100  0.75414400  0.57229100  1
  Sr  Sr12  1  0.75107100  0.24585600  0.42770900  1
  Sr  Sr13  1  0.75107100  0.74585600  0.07229100  1
  Sr  Sr14  1  0.24892900  0.74585600  0.07229100  1
  Sr  Sr15  1  0.74708200  0.88771600  0.32629700  1
  Sn  Sn16  1  0.50000000  0.91003500  0.82153500  1
  Sn  Sn17  1  0.50000000  0.08996500  0.17846500  1
  Sn  Sn18  1  0.50000000  0.58996500  0.32153500  1
  Sn  Sn19  1  0.50000000  0.41003500  0.67846500  1
  Sn  Sn20  1  0.00000000  0.95076900  0.89563800  1
  Sn  Sn21  1  0.00000000  0.45076900  0.60436200  1
  Sn  Sn22  1  0.00000000  0.54923100  0.39563800  1
  Sn  Sn23  1  0.00000000  0.04923100  0.10436200  1
  Se  Se24  1  0.50000000  0.74200700  0.43087800  1
  Se  Se25  1  0.50000000  0.75799300  0.93087800  1
  Se  Se26  1  0.75668100  0.13043400  0.24946000  1
  Se  Se27  1  0.24331900  0.13043400  0.24946000  1
  Se  Se28  1  0.00000000  0.13381100  0.81392600  1
  Se  Se29  1  0.22611800  0.00000000  0.00000000  1
  Se  Se30  1  0.22611800  0.50000000  0.50000000  1
  Se  Se31  1  0.77388200  0.00000000  0.00000000  1
  Se  Se32  1  0.00000000  0.46359500  0.92985400  1
  Se  Se33  1  0.77388200  0.50000000  0.50000000  1
  Se  Se34  1  0.00000000  0.24243200  0.57386900  1
  Se  Se35  1  0.00000000  0.36618900  0.31392600  1
  Se  Se36  1  0.00000000  0.53640500  0.07014600  1
  Se  Se37  1  0.50000000  0.54078700  0.06866400  1
  Se  Se38  1  0.00000000  0.25756800  0.07386900  1
  Se  Se39  1  0.50000000  0.62342200  0.67972400  1
  Se  Se40  1  0.24331900  0.86956600  0.75054000  1
  Se  Se41  1  0.00000000  0.86618900  0.18607400  1
  Se  Se42  1  0.50000000  0.12342200  0.82027600  1
  Se  Se43  1  0.24331900  0.36956600  0.74946000  1
  Se  Se44  1  0.75668100  0.63043400  0.25054000  1
  Se  Se45  1  0.50000000  0.25799300  0.56912200  1
  Se  Se46  1  0.00000000  0.74243200  0.92613100  1
  Se  Se47  1  0.50000000  0.95921300  0.56866400  1
  Se  Se48  1  0.50000000  0.24200700  0.06912200  1
  Se  Se49  1  0.50000000  0.87657800  0.17972400  1
  Se  Se50  1  0.75668100  0.86956600  0.75054000  1
  Se  Se51  1  0.50000000  0.04078700  0.43133600  1
  Se  Se52  1  0.50000000  0.45921300  0.93133600  1
  Se  Se53  1  0.75668100  0.36956600  0.74946000  1
  Se  Se54  1  0.00000000  0.75756800  0.42613100  1
  Se  Se55  1  0.50000000  0.37657800  0.32027600  1
  Se  Se56  1  0.00000000  0.03640500  0.42985400  1
  Se  Se57  1  0.00000000  0.63381100  0.68607400  1
  Se  Se58  1  0.00000000  0.96359500  0.57014600  1
  Se  Se59  1  0.24331900  0.63043400  0.25054000  1
