# generated using pymatgen
data_Bi2O3
_symmetry_space_group_name_H-M   'P 1'
_cell_length_a   5.25405100
_cell_length_b   5.72460000
_cell_length_c   12.81170400
_cell_angle_alpha   90.00000000
_cell_angle_beta   90.00000000
_cell_angle_gamma   90.00000000
_symmetry_Int_Tables_number   1
_chemical_formula_structural   Bi2O3
_chemical_formula_sum   'Bi8 O12'
_cell_volume   385.34198173
_cell_formula_units_Z   4
loop_
 _symmetry_equiv_pos_site_id
 _symmetry_equiv_pos_as_xyz
  1  'x, y, z'
loop_
 _atom_site_type_symbol
 _atom_site_label
 _atom_site_symmetry_multiplicity
 _atom_site_fract_x
 _atom_site_fract_y
 _atom_site_fract_z
 _atom_site_occupancy
  Bi  Bi0  1  0.95057100  0.32046300  0.62531200  1
  Bi  Bi1  1  0.54942900  0.82046300  0.62531200  1
  Bi  Bi2  1  0.45057100  0.67953700  0.12531200  1
  Bi  Bi3  1  0.45057100  0.17953700  0.37468800  1
  Bi  Bi4  1  0.95057100  0.82046300  0.87468800  1
  Bi  Bi5  1  0.54942900  0.32046300  0.87468800  1
  Bi  Bi6  1  0.04942900  0.17953700  0.12531200  1
  Bi  Bi7  1  0.04942900  0.67953700  0.37468800  1
  O  O8  1  0.38110700  0.33015700  0.05669900  1
  O  O9  1  0.11889300  0.83015700  0.05669900  1
  O  O10  1  0.25000000  0.48195900  0.25000000  1
  O  O11  1  0.75000000  0.51804100  0.75000000  1
  O  O12  1  0.75000000  0.01804100  0.75000000  1
  O  O13  1  0.11889300  0.33015700  0.44330100  1
  O  O14  1  0.38110700  0.83015700  0.44330100  1
  O  O15  1  0.88110700  0.16984300  0.94330100  1
  O  O16  1  0.61889300  0.66984300  0.94330100  1
  O  O17  1  0.61889300  0.16984300  0.55669900  1
  O  O18  1  0.88110700  0.66984300  0.55669900  1
  O  O19  1  0.25000000  0.98195900  0.25000000  1
