# generated using pymatgen
data_Sr
_symmetry_space_group_name_H-M   'P 1'
_cell_length_a   6.73228142
_cell_length_b   6.73228142
_cell_length_c   6.73228142
_cell_angle_alpha   106.34092465
_cell_angle_beta   106.34092465
_cell_angle_gamma   115.93145701
_symmetry_Int_Tables_number   1
_chemical_formula_structural   Sr
_chemical_formula_sum   Sr4
_cell_volume   232.62588580
_cell_formula_units_Z   4
loop_
 _symmetry_equiv_pos_site_id
 _symmetry_equiv_pos_as_xyz
  1  'x, y, z'
loop_
 _atom_site_type_symbol
 _atom_site_label
 _atom_site_symmetry_multiplicity
 _atom_site_fract_x
 _atom_site_fract_y
 _atom_site_fract_z
 _atom_site_occupancy
  Sr  Sr0  1  0.67024400  0.17024400  0.84048900  1
  Sr  Sr1  1  0.32975600  0.82975600  0.15951100  1
  Sr  Sr2  1  0.82975600  0.67024400  0.50000000  1
  Sr  Sr3  1  0.17024400  0.32975600  0.50000000  1
