# generated using pymatgen
data_SmFePO
_symmetry_space_group_name_H-M   'P 1'
_cell_length_a   3.88803500
_cell_length_b   3.88803500
_cell_length_c   8.69641700
_cell_angle_alpha   90.00000000
_cell_angle_beta   90.00000000
_cell_angle_gamma   90.00000000
_symmetry_Int_Tables_number   1
_chemical_formula_structural   SmFePO
_chemical_formula_sum   'Sm2 Fe2 P2 O2'
_cell_volume   131.46213705
_cell_formula_units_Z   2
loop_
 _symmetry_equiv_pos_site_id
 _symmetry_equiv_pos_as_xyz
  1  'x, y, z'
loop_
 _atom_site_type_symbol
 _atom_site_label
 _atom_site_symmetry_multiplicity
 _atom_site_fract_x
 _atom_site_fract_y
 _atom_site_fract_z
 _atom_site_occupancy
  Sm  Sm0  1  0.00000000  0.50000000  0.86183200  1
  Sm  Sm1  1  0.50000000  0.00000000  0.13816800  1
  Fe  Fe2  1  0.50000000  0.50000000  0.50000000  1
  Fe  Fe3  1  0.00000000  0.00000000  0.50000000  1
  P  P4  1  0.00000000  0.50000000  0.34185000  1
  P  P5  1  0.50000000  0.00000000  0.65815000  1
  O  O6  1  0.50000000  0.50000000  0.00000000  1
  O  O7  1  0.00000000  0.00000000  0.00000000  1
