# generated using pymatgen
data_Tl2Pt
_symmetry_space_group_name_H-M   'P 1'
_cell_length_a   5.73261916
_cell_length_b   5.73261916
_cell_length_c   5.73261916
_cell_angle_alpha   104.21127525
_cell_angle_beta   104.21127525
_cell_angle_gamma   120.59748833
_symmetry_Int_Tables_number   1
_chemical_formula_structural   Tl2Pt
_chemical_formula_sum   'Tl4 Pt2'
_cell_volume   140.85546197
_cell_formula_units_Z   2
loop_
 _symmetry_equiv_pos_site_id
 _symmetry_equiv_pos_as_xyz
  1  'x, y, z'
loop_
 _atom_site_type_symbol
 _atom_site_label
 _atom_site_symmetry_multiplicity
 _atom_site_fract_x
 _atom_site_fract_y
 _atom_site_fract_z
 _atom_site_occupancy
  Tl  Tl0  1  0.83926600  0.33926600  0.17853100  1
  Tl  Tl1  1  0.33926600  0.16073400  0.50000000  1
  Tl  Tl2  1  0.16073400  0.66073400  0.82146900  1
  Tl  Tl3  1  0.66073400  0.83926600  0.50000000  1
  Pt  Pt4  1  0.25000000  0.25000000  0.00000000  1
  Pt  Pt5  1  0.75000000  0.75000000  0.00000000  1
