# generated using pymatgen
data_TbCl3
_symmetry_space_group_name_H-M   'P 1'
_cell_length_a   7.51026587
_cell_length_b   7.51026587
_cell_length_c   4.02886300
_cell_angle_alpha   90.00000000
_cell_angle_beta   90.00000000
_cell_angle_gamma   119.99999889
_symmetry_Int_Tables_number   1
_chemical_formula_structural   TbCl3
_chemical_formula_sum   'Tb2 Cl6'
_cell_volume   196.79939546
_cell_formula_units_Z   2
loop_
 _symmetry_equiv_pos_site_id
 _symmetry_equiv_pos_as_xyz
  1  'x, y, z'
loop_
 _atom_site_type_symbol
 _atom_site_label
 _atom_site_symmetry_multiplicity
 _atom_site_fract_x
 _atom_site_fract_y
 _atom_site_fract_z
 _atom_site_occupancy
  Tb  Tb0  1  0.66666700  0.33333300  0.75000000  1
  Tb  Tb1  1  0.33333300  0.66666700  0.25000000  1
  Cl  Cl2  1  0.69665200  0.09112800  0.25000000  1
  Cl  Cl3  1  0.60552500  0.69665200  0.75000000  1
  Cl  Cl4  1  0.39447500  0.30334800  0.25000000  1
  Cl  Cl5  1  0.90887200  0.60552500  0.25000000  1
  Cl  Cl6  1  0.30334800  0.90887200  0.75000000  1
  Cl  Cl7  1  0.09112800  0.39447500  0.75000000  1
