# generated using pymatgen
data_Hg2TeO5
_symmetry_space_group_name_H-M   'P 1'
_cell_length_a   6.05981300
_cell_length_b   7.51811500
_cell_length_c   10.13289000
_cell_angle_alpha   90.00000000
_cell_angle_beta   90.00000000
_cell_angle_gamma   90.00000000
_symmetry_Int_Tables_number   1
_chemical_formula_structural   Hg2TeO5
_chemical_formula_sum   'Hg8 Te4 O20'
_cell_volume   461.63796205
_cell_formula_units_Z   4
loop_
 _symmetry_equiv_pos_site_id
 _symmetry_equiv_pos_as_xyz
  1  'x, y, z'
loop_
 _atom_site_type_symbol
 _atom_site_label
 _atom_site_symmetry_multiplicity
 _atom_site_fract_x
 _atom_site_fract_y
 _atom_site_fract_z
 _atom_site_occupancy
  Hg  Hg0  1  0.22788300  0.73065100  0.17240500  1
  Hg  Hg1  1  0.77211700  0.26934900  0.67240500  1
  Hg  Hg2  1  0.27211700  0.23065100  0.17240500  1
  Hg  Hg3  1  0.72788300  0.76934900  0.67240500  1
  Hg  Hg4  1  0.22515600  0.52459200  0.83541200  1
  Hg  Hg5  1  0.77484400  0.47540800  0.33541200  1
  Hg  Hg6  1  0.27484400  0.02459200  0.83541200  1
  Hg  Hg7  1  0.72515600  0.97540800  0.33541200  1
  Te  Te8  1  0.24107800  0.86628700  0.50245600  1
  Te  Te9  1  0.75892200  0.13371300  0.00245600  1
  Te  Te10  1  0.25892200  0.36628700  0.50245600  1
  Te  Te11  1  0.74107800  0.63371300  0.00245600  1
  O  O12  1  0.15427500  0.83814800  0.68610400  1
  O  O13  1  0.84572500  0.16185200  0.18610400  1
  O  O14  1  0.34572500  0.33814800  0.68610400  1
  O  O15  1  0.65427500  0.66185200  0.18610400  1
  O  O16  1  0.45544600  0.71117100  0.94358600  1
  O  O17  1  0.54455400  0.28882900  0.44358600  1
  O  O18  1  0.04455400  0.21117100  0.94358600  1
  O  O19  1  0.95544600  0.78882900  0.44358600  1
  O  O20  1  0.36778700  0.61853500  0.50228500  1
  O  O21  1  0.63221300  0.38146500  0.00228500  1
  O  O22  1  0.13221300  0.11853500  0.50228500  1
  O  O23  1  0.86778700  0.88146500  0.00228500  1
  O  O24  1  0.54249200  0.94197900  0.55106900  1
  O  O25  1  0.45750800  0.05802100  0.05106900  1
  O  O26  1  0.95750800  0.44197900  0.55106900  1
  O  O27  1  0.04249200  0.55802100  0.05106900  1
  O  O28  1  0.33927400  0.90881800  0.31783300  1
  O  O29  1  0.66072600  0.09118200  0.81783300  1
  O  O30  1  0.16072600  0.40881800  0.31783300  1
  O  O31  1  0.83927400  0.59118200  0.81783300  1
