# generated using pymatgen
data_Al5Mo
_symmetry_space_group_name_H-M   'P 1'
_cell_length_a   4.91853316
_cell_length_b   4.91853316
_cell_length_c   8.87569800
_cell_angle_alpha   90.00000000
_cell_angle_beta   90.00000000
_cell_angle_gamma   120.00001559
_symmetry_Int_Tables_number   1
_chemical_formula_structural   Al5Mo
_chemical_formula_sum   'Al10 Mo2'
_cell_volume   185.95347020
_cell_formula_units_Z   2
loop_
 _symmetry_equiv_pos_site_id
 _symmetry_equiv_pos_as_xyz
  1  'x, y, z'
loop_
 _atom_site_type_symbol
 _atom_site_label
 _atom_site_symmetry_multiplicity
 _atom_site_fract_x
 _atom_site_fract_y
 _atom_site_fract_z
 _atom_site_occupancy
  Al  Al0  1  0.66156000  0.00000000  0.00000000  1
  Al  Al1  1  0.00000000  0.66156000  0.00000000  1
  Al  Al2  1  0.66156000  0.66156000  0.50000000  1
  Al  Al3  1  0.00000000  0.00000000  0.75000000  1
  Al  Al4  1  0.33844000  0.00000000  0.50000000  1
  Al  Al5  1  0.66666700  0.33333300  0.25000000  1
  Al  Al6  1  0.33844000  0.33844000  0.00000000  1
  Al  Al7  1  0.00000000  0.00000000  0.25000000  1
  Al  Al8  1  0.33333300  0.66666700  0.75000000  1
  Al  Al9  1  0.00000000  0.33844000  0.50000000  1
  Mo  Mo10  1  0.33333300  0.66666700  0.25000000  1
  Mo  Mo11  1  0.66666700  0.33333300  0.75000000  1
