# generated using pymatgen
data_Sr2TiO4
_symmetry_space_group_name_H-M   'P 1'
_cell_length_a   6.92292873
_cell_length_b   6.92292873
_cell_length_c   6.92292873
_cell_angle_alpha   147.04054938
_cell_angle_beta   147.04054938
_cell_angle_gamma   47.30374598
_symmetry_Int_Tables_number   1
_chemical_formula_structural   Sr2TiO4
_chemical_formula_sum   'Sr2 Ti1 O4'
_cell_volume   97.82960638
_cell_formula_units_Z   1
loop_
 _symmetry_equiv_pos_site_id
 _symmetry_equiv_pos_as_xyz
  1  'x, y, z'
loop_
 _atom_site_type_symbol
 _atom_site_label
 _atom_site_symmetry_multiplicity
 _atom_site_fract_x
 _atom_site_fract_y
 _atom_site_fract_z
 _atom_site_occupancy
  Sr  Sr0  1  0.64528900  0.64528900  0.00000000  1
  Sr  Sr1  1  0.35471100  0.35471100  0.00000000  1
  Ti  Ti2  1  0.00000000  0.00000000  0.00000000  1
  O  O3  1  0.84177500  0.84177500  0.00000000  1
  O  O4  1  0.15822500  0.15822500  0.00000000  1
  O  O5  1  0.50000000  0.00000000  0.50000000  1
  O  O6  1  0.00000000  0.50000000  0.50000000  1
