# generated using pymatgen
data_TiSCl6O
_symmetry_space_group_name_H-M   'P 1'
_cell_length_a   22.02297900
_cell_length_b   6.89123800
_cell_length_c   7.58932057
_cell_angle_alpha   65.54637701
_cell_angle_beta   90.00000000
_cell_angle_gamma   90.00000000
_symmetry_Int_Tables_number   1
_chemical_formula_structural   TiSCl6O
_chemical_formula_sum   'Ti4 S4 Cl24 O4'
_cell_volume   1048.47758511
_cell_formula_units_Z   4
loop_
 _symmetry_equiv_pos_site_id
 _symmetry_equiv_pos_as_xyz
  1  'x, y, z'
loop_
 _atom_site_type_symbol
 _atom_site_label
 _atom_site_symmetry_multiplicity
 _atom_site_fract_x
 _atom_site_fract_y
 _atom_site_fract_z
 _atom_site_occupancy
  Ti  Ti0  1  0.57064600  0.49398900  0.15309200  1
  Ti  Ti1  1  0.92935400  0.49398900  0.65309200  1
  Ti  Ti2  1  0.07064600  0.50601100  0.34690800  1
  Ti  Ti3  1  0.42935400  0.50601100  0.84690800  1
  S  S4  1  0.63970800  0.87185700  0.67858100  1
  S  S5  1  0.86029200  0.87185700  0.17858100  1
  S  S6  1  0.13970800  0.12814300  0.82141900  1
  S  S7  1  0.36029200  0.12814300  0.32141900  1
  Cl  Cl8  1  0.10347300  0.25214800  0.26152900  1
  Cl  Cl9  1  0.46743100  0.72730800  0.56683300  1
  Cl  Cl10  1  0.32482600  0.89778400  0.24024400  1
  Cl  Cl11  1  0.84240400  0.32338600  0.66111900  1
  Cl  Cl12  1  0.17517400  0.89778400  0.74024400  1
  Cl  Cl13  1  0.96743100  0.27269200  0.93316700  1
  Cl  Cl14  1  0.53256900  0.27269200  0.43316700  1
  Cl  Cl15  1  0.82482600  0.10221600  0.25975600  1
  Cl  Cl16  1  0.03256900  0.72730800  0.06683300  1
  Cl  Cl17  1  0.67517400  0.10221600  0.75975600  1
  Cl  Cl18  1  0.39652700  0.25214800  0.76152900  1
  Cl  Cl19  1  0.15759600  0.67661400  0.33888100  1
  Cl  Cl20  1  0.28035900  0.29183300  0.31692100  1
  Cl  Cl21  1  0.65759600  0.32338600  0.16111900  1
  Cl  Cl22  1  0.52499300  0.30823300  0.96462700  1
  Cl  Cl23  1  0.34240400  0.67661400  0.83888100  1
  Cl  Cl24  1  0.78035900  0.70816700  0.18307900  1
  Cl  Cl25  1  0.89652700  0.74785200  0.73847100  1
  Cl  Cl26  1  0.60347300  0.74785200  0.23847100  1
  Cl  Cl27  1  0.21964100  0.29183300  0.81692100  1
  Cl  Cl28  1  0.97500700  0.30823300  0.46462700  1
  Cl  Cl29  1  0.71964100  0.70816700  0.68307900  1
  Cl  Cl30  1  0.47500700  0.69176700  0.03537300  1
  Cl  Cl31  1  0.02499300  0.69176700  0.53537300  1
  O  O32  1  0.10106800  0.27001200  0.66378700  1
  O  O33  1  0.60106800  0.72998800  0.83621300  1
  O  O34  1  0.39893200  0.27001200  0.16378700  1
  O  O35  1  0.89893200  0.72998800  0.33621300  1
