# generated using pymatgen
data_MnBi
_symmetry_space_group_name_H-M   'P 1'
_cell_length_a   4.31968753
_cell_length_b   4.31968753
_cell_length_c   5.74501600
_cell_angle_alpha   90.00000000
_cell_angle_beta   90.00000000
_cell_angle_gamma   119.99999278
_symmetry_Int_Tables_number   1
_chemical_formula_structural   MnBi
_chemical_formula_sum   'Mn2 Bi2'
_cell_volume   92.83816996
_cell_formula_units_Z   2
loop_
 _symmetry_equiv_pos_site_id
 _symmetry_equiv_pos_as_xyz
  1  'x, y, z'
loop_
 _atom_site_type_symbol
 _atom_site_label
 _atom_site_symmetry_multiplicity
 _atom_site_fract_x
 _atom_site_fract_y
 _atom_site_fract_z
 _atom_site_occupancy
  Mn  Mn0  1  0.00000000  0.00000000  0.50000000  1
  Mn  Mn1  1  0.00000000  0.00000000  0.00000000  1
  Bi  Bi2  1  0.33333300  0.66666700  0.25000000  1
  Bi  Bi3  1  0.66666700  0.33333300  0.75000000  1
