# generated using pymatgen
data_YOs2
_symmetry_space_group_name_H-M   'P 1'
_cell_length_a   5.33459183
_cell_length_b   5.33459183
_cell_length_c   8.84356200
_cell_angle_alpha   90.00000000
_cell_angle_beta   90.00000000
_cell_angle_gamma   119.99999795
_symmetry_Int_Tables_number   1
_chemical_formula_structural   YOs2
_chemical_formula_sum   'Y4 Os8'
_cell_volume   217.95169825
_cell_formula_units_Z   4
loop_
 _symmetry_equiv_pos_site_id
 _symmetry_equiv_pos_as_xyz
  1  'x, y, z'
loop_
 _atom_site_type_symbol
 _atom_site_label
 _atom_site_symmetry_multiplicity
 _atom_site_fract_x
 _atom_site_fract_y
 _atom_site_fract_z
 _atom_site_occupancy
  Y  Y0  1  0.33333300  0.66666700  0.43543000  1
  Y  Y1  1  0.66666700  0.33333300  0.56457000  1
  Y  Y2  1  0.66666700  0.33333300  0.93543000  1
  Y  Y3  1  0.33333300  0.66666700  0.06457000  1
  Os  Os4  1  0.00000000  0.00000000  0.50000000  1
  Os  Os5  1  0.00000000  0.00000000  0.00000000  1
  Os  Os6  1  0.82754700  0.17245300  0.25000000  1
  Os  Os7  1  0.82754700  0.65509400  0.25000000  1
  Os  Os8  1  0.34490600  0.17245300  0.25000000  1
  Os  Os9  1  0.17245300  0.82754700  0.75000000  1
  Os  Os10  1  0.17245300  0.34490600  0.75000000  1
  Os  Os11  1  0.65509400  0.82754700  0.75000000  1
