# generated using pymatgen
data_LaFePO
_symmetry_space_group_name_H-M   'P 1'
_cell_length_a   4.06887900
_cell_length_b   4.06887900
_cell_length_c   9.08498100
_cell_angle_alpha   90.00000000
_cell_angle_beta   90.00000000
_cell_angle_gamma   90.00000000
_symmetry_Int_Tables_number   1
_chemical_formula_structural   LaFePO
_chemical_formula_sum   'La2 Fe2 P2 O2'
_cell_volume   150.40891328
_cell_formula_units_Z   2
loop_
 _symmetry_equiv_pos_site_id
 _symmetry_equiv_pos_as_xyz
  1  'x, y, z'
loop_
 _atom_site_type_symbol
 _atom_site_label
 _atom_site_symmetry_multiplicity
 _atom_site_fract_x
 _atom_site_fract_y
 _atom_site_fract_z
 _atom_site_occupancy
  La  La0  1  0.50000000  0.00000000  0.13515100  1
  La  La1  1  0.00000000  0.50000000  0.86484900  1
  Fe  Fe2  1  0.00000000  0.00000000  0.50000000  1
  Fe  Fe3  1  0.50000000  0.50000000  0.50000000  1
  P  P4  1  0.50000000  0.00000000  0.66575300  1
  P  P5  1  0.00000000  0.50000000  0.33424700  1
  O  O6  1  0.00000000  0.00000000  0.00000000  1
  O  O7  1  0.50000000  0.50000000  0.00000000  1
