# generated using pymatgen
data_Sr5La3Mn4(WO6)4
_symmetry_space_group_name_H-M   'P 1'
_cell_length_a   8.17417100
_cell_length_b   8.20516734
_cell_length_c   9.94502649
_cell_angle_alpha   114.09060705
_cell_angle_beta   114.06846434
_cell_angle_gamma   90.17286170
_symmetry_Int_Tables_number   1
_chemical_formula_structural   Sr5La3Mn4(WO6)4
_chemical_formula_sum   'Sr5 La3 Mn4 W4 O24'
_cell_volume   544.36590313
_cell_formula_units_Z   1
loop_
 _symmetry_equiv_pos_site_id
 _symmetry_equiv_pos_as_xyz
  1  'x, y, z'
loop_
 _atom_site_type_symbol
 _atom_site_label
 _atom_site_symmetry_multiplicity
 _atom_site_fract_x
 _atom_site_fract_y
 _atom_site_fract_z
 _atom_site_occupancy
  Sr  Sr0  1  0.37905800  0.39080600  0.74778800  1
  Sr  Sr1  1  0.10932500  0.62374100  0.25002700  1
  Sr  Sr2  1  0.87529900  0.88648000  0.74988200  1
  Sr  Sr3  1  0.89136800  0.37599200  0.74620300  1
  Sr  Sr4  1  0.61049500  0.12157900  0.25376000  1
  La  La5  1  0.39989100  0.87250100  0.75002600  1
  La  La6  1  0.12028200  0.10406200  0.25431200  1
  La  La7  1  0.62679600  0.61076300  0.25506600  1
  Mn  Mn8  1  0.24939500  0.74885800  0.99988000  1
  Mn  Mn9  1  0.00009500  0.00068400  0.50316900  1
  Mn  Mn10  1  0.75147400  0.25211700  0.99972200  1
  Mn  Mn11  1  0.49964200  0.49638400  0.49938400  1
  W  W12  1  0.00113300  0.50067500  0.50035000  1
  W  W13  1  0.25045200  0.25090500  0.00120500  1
  W  W14  1  0.50041500  0.99958700  0.50177000  1
  W  W15  1  0.74770000  0.75066300  0.99981900  1
  O  O16  1  0.04194000  0.27612800  0.53792700  1
  O  O17  1  0.99479600  0.23951400  0.95367300  1
  O  O18  1  0.24368800  0.45769900  0.95126500  1
  O  O19  1  0.83104300  0.91756100  0.23329100  1
  O  O20  1  0.23279200  0.95772800  0.44318700  1
  O  O21  1  0.07139200  0.65537100  0.73216800  1
  O  O22  1  0.43333700  0.83055600  0.26192500  1
  O  O23  1  0.27118000  0.55639600  0.55571300  1
  O  O24  1  0.53469500  0.78074800  0.54969900  1
  O  O25  1  0.47868100  0.74777700  0.94829100  1
  O  O26  1  0.73123800  0.96753600  0.94549300  1
  O  O27  1  0.33068200  0.41610000  0.23253500  1
  O  O28  1  0.67300500  0.58541700  0.76919600  1
  O  O29  1  0.25475400  0.04350700  0.05349600  1
  O  O30  1  0.51067200  0.26593900  0.05191100  1
  O  O31  1  0.44514700  0.21230800  0.44352500  1
  O  O32  1  0.72946600  0.45987600  0.44195000  1
  O  O33  1  0.57029200  0.15606000  0.73821700  1
  O  O34  1  0.94062800  0.33922100  0.26496700  1
  O  O35  1  0.76247900  0.04209600  0.55084100  1
  O  O36  1  0.18447100  0.07888000  0.77046000  1
  O  O37  1  0.75134600  0.53725100  0.05817500  1
  O  O38  1  0.01959400  0.77418500  0.05364700  1
  O  O39  1  0.94986200  0.71634900  0.44608400  1
