# generated using pymatgen
data_Ag3Sn
_symmetry_space_group_name_H-M   'P 1'
_cell_length_a   4.92894500
_cell_length_b   5.29956600
_cell_length_c   5.97839700
_cell_angle_alpha   90.00000000
_cell_angle_beta   90.00000000
_cell_angle_gamma   90.00000000
_symmetry_Int_Tables_number   1
_chemical_formula_structural   Ag3Sn
_chemical_formula_sum   'Ag6 Sn2'
_cell_volume   156.16331825
_cell_formula_units_Z   2
loop_
 _symmetry_equiv_pos_site_id
 _symmetry_equiv_pos_as_xyz
  1  'x, y, z'
loop_
 _atom_site_type_symbol
 _atom_site_label
 _atom_site_symmetry_multiplicity
 _atom_site_fract_x
 _atom_site_fract_y
 _atom_site_fract_z
 _atom_site_occupancy
  Ag  Ag0  1  0.00000000  0.33658600  0.25031600  1
  Ag  Ag1  1  0.00000000  0.33658600  0.74968400  1
  Ag  Ag2  1  0.50000000  0.66341400  0.24968400  1
  Ag  Ag3  1  0.50000000  0.66341400  0.75031600  1
  Ag  Ag4  1  0.00000000  0.82621300  0.50000000  1
  Ag  Ag5  1  0.50000000  0.17378700  0.00000000  1
  Sn  Sn6  1  0.00000000  0.83179700  0.00000000  1
  Sn  Sn7  1  0.50000000  0.16820300  0.50000000  1
