# generated using pymatgen
data_BaCu(Si2O5)2
_symmetry_space_group_name_H-M   'P 1'
_cell_length_a   7.52183800
_cell_length_b   7.52183800
_cell_length_c   16.55382700
_cell_angle_alpha   90.00000000
_cell_angle_beta   90.00000000
_cell_angle_gamma   90.00000000
_symmetry_Int_Tables_number   1
_chemical_formula_structural   BaCu(Si2O5)2
_chemical_formula_sum   'Ba4 Cu4 Si16 O40'
_cell_volume   936.58320035
_cell_formula_units_Z   4
loop_
 _symmetry_equiv_pos_site_id
 _symmetry_equiv_pos_as_xyz
  1  'x, y, z'
loop_
 _atom_site_type_symbol
 _atom_site_label
 _atom_site_symmetry_multiplicity
 _atom_site_fract_x
 _atom_site_fract_y
 _atom_site_fract_z
 _atom_site_occupancy
  Ba  Ba0  1  0.50000000  0.50000000  0.00000000  1
  Ba  Ba1  1  0.00000000  0.00000000  0.00000000  1
  Ba  Ba2  1  0.00000000  0.00000000  0.50000000  1
  Ba  Ba3  1  0.50000000  0.50000000  0.50000000  1
  Cu  Cu4  1  0.50000000  0.00000000  0.09709400  1
  Cu  Cu5  1  0.00000000  0.50000000  0.40290600  1
  Cu  Cu6  1  0.00000000  0.50000000  0.90290600  1
  Cu  Cu7  1  0.50000000  0.00000000  0.59709400  1
  Si  Si8  1  0.18622200  0.26548200  0.65532900  1
  Si  Si9  1  0.81377800  0.73451800  0.65532900  1
  Si  Si10  1  0.26548200  0.18622200  0.84467100  1
  Si  Si11  1  0.76548200  0.31377800  0.65532900  1
  Si  Si12  1  0.23451800  0.68622200  0.65532900  1
  Si  Si13  1  0.31377800  0.76548200  0.84467100  1
  Si  Si14  1  0.68622200  0.23451800  0.84467100  1
  Si  Si15  1  0.73451800  0.81377800  0.84467100  1
  Si  Si16  1  0.31377800  0.23451800  0.34467100  1
  Si  Si17  1  0.68622200  0.76548200  0.34467100  1
  Si  Si18  1  0.23451800  0.31377800  0.15532900  1
  Si  Si19  1  0.73451800  0.18622200  0.34467100  1
  Si  Si20  1  0.26548200  0.81377800  0.34467100  1
  Si  Si21  1  0.18622200  0.73451800  0.15532900  1
  Si  Si22  1  0.81377800  0.26548200  0.15532900  1
  Si  Si23  1  0.76548200  0.68622200  0.15532900  1
  O  O24  1  0.27624600  0.13115100  0.59195800  1
  O  O25  1  0.72375400  0.86884900  0.59195800  1
  O  O26  1  0.13115100  0.27624600  0.90804200  1
  O  O27  1  0.63115100  0.22375400  0.59195800  1
  O  O28  1  0.36884900  0.77624600  0.59195800  1
  O  O29  1  0.22375400  0.63115100  0.90804200  1
  O  O30  1  0.77624600  0.36884900  0.90804200  1
  O  O31  1  0.86884900  0.72375400  0.90804200  1
  O  O32  1  0.22375400  0.36884900  0.40804200  1
  O  O33  1  0.77624600  0.63115100  0.40804200  1
  O  O34  1  0.36884900  0.22375400  0.09195800  1
  O  O35  1  0.86884900  0.27624600  0.40804200  1
  O  O36  1  0.13115100  0.72375400  0.40804200  1
  O  O37  1  0.27624600  0.86884900  0.09195800  1
  O  O38  1  0.72375400  0.13115100  0.09195800  1
  O  O39  1  0.25047300  0.02902700  0.36298000  1
  O  O40  1  0.63115100  0.77624600  0.09195800  1
  O  O41  1  0.75047300  0.52902700  0.63702000  1
  O  O42  1  0.47097300  0.24952700  0.86298000  1
  O  O43  1  0.97097300  0.25047300  0.63702000  1
  O  O44  1  0.02902700  0.74952700  0.63702000  1
  O  O45  1  0.25047300  0.97097300  0.86298000  1
  O  O46  1  0.74952700  0.02902700  0.86298000  1
  O  O47  1  0.52902700  0.75047300  0.86298000  1
  O  O48  1  0.72239700  0.72239700  0.25000000  1
  O  O49  1  0.77760300  0.22239700  0.25000000  1
  O  O50  1  0.22239700  0.77760300  0.25000000  1
  O  O51  1  0.27760300  0.27760300  0.25000000  1
  O  O52  1  0.77760300  0.77760300  0.75000000  1
  O  O53  1  0.72239700  0.27760300  0.75000000  1
  O  O54  1  0.27760300  0.72239700  0.75000000  1
  O  O55  1  0.22239700  0.22239700  0.75000000  1
  O  O56  1  0.97097300  0.74952700  0.13702000  1
  O  O57  1  0.75047300  0.47097300  0.13702000  1
  O  O58  1  0.24952700  0.52902700  0.13702000  1
  O  O59  1  0.47097300  0.75047300  0.36298000  1
  O  O60  1  0.52902700  0.24952700  0.36298000  1
  O  O61  1  0.02902700  0.25047300  0.13702000  1
  O  O62  1  0.74952700  0.97097300  0.36298000  1
  O  O63  1  0.24952700  0.47097300  0.63702000  1
