# generated using pymatgen
data_MoP4O13
_symmetry_space_group_name_H-M   'P 1'
_cell_length_a   5.13017500
_cell_length_b   7.97206024
_cell_length_c   13.85948859
_cell_angle_alpha   80.34303495
_cell_angle_beta   82.97154644
_cell_angle_gamma   81.87813460
_symmetry_Int_Tables_number   1
_chemical_formula_structural   MoP4O13
_chemical_formula_sum   'Mo2 P8 O26'
_cell_volume   550.35525861
_cell_formula_units_Z   2
loop_
 _symmetry_equiv_pos_site_id
 _symmetry_equiv_pos_as_xyz
  1  'x, y, z'
loop_
 _atom_site_type_symbol
 _atom_site_label
 _atom_site_symmetry_multiplicity
 _atom_site_fract_x
 _atom_site_fract_y
 _atom_site_fract_z
 _atom_site_occupancy
  Mo  Mo0  1  0.43344800  0.05715700  0.25853100  1
  Mo  Mo1  1  0.56655200  0.94284300  0.74146900  1
  P  P2  1  0.86225500  0.22412200  0.36412300  1
  P  P3  1  0.33521200  0.56930100  0.82088600  1
  P  P4  1  0.71633400  0.34051300  0.69977700  1
  P  P5  1  0.13774500  0.77587800  0.63587700  1
  P  P6  1  0.66478800  0.43069900  0.17911400  1
  P  P7  1  0.99150400  0.10583700  0.85420000  1
  P  P8  1  0.00849600  0.89416300  0.14580000  1
  P  P9  1  0.28366600  0.65948700  0.30022300  1
  O  O10  1  0.28971700  0.02977800  0.83923400  1
  O  O11  1  0.79899200  0.46465600  0.08051700  1
  O  O12  1  0.74655200  0.28491300  0.45530900  1
  O  O13  1  0.50146600  0.40018200  0.78660600  1
  O  O14  1  0.49853400  0.59981800  0.21339400  1
  O  O15  1  0.83208100  0.96674800  0.82280900  1
  O  O16  1  0.29691200  0.92006000  0.66283100  1
  O  O17  1  0.10920800  0.83578100  0.05244700  1
  O  O18  1  0.53560100  0.70923300  0.80217600  1
  O  O19  1  0.84173800  0.86047600  0.64232700  1
  O  O20  1  0.40175700  0.82271700  0.32012400  1
  O  O21  1  0.96787200  0.25560900  0.75816600  1
  O  O22  1  0.71028300  0.97022200  0.16076600  1
  O  O23  1  0.59824300  0.17728300  0.67987600  1
  O  O24  1  0.25344800  0.71508700  0.54469100  1
  O  O25  1  0.16791900  0.03325200  0.17719100  1
  O  O26  1  0.70308800  0.07994000  0.33716900  1
  O  O27  1  0.77942100  0.47359500  0.61831600  1
  O  O28  1  0.15826200  0.13952400  0.35767300  1
  O  O29  1  0.20100800  0.53534400  0.91948300  1
  O  O30  1  0.22057900  0.52640500  0.38168400  1
  O  O31  1  0.03212800  0.74439100  0.24183400  1
  O  O32  1  0.13806600  0.63802200  0.73639500  1
  O  O33  1  0.86193400  0.36197800  0.26360500  1
  O  O34  1  0.46439900  0.29076700  0.19782400  1
  O  O35  1  0.89079200  0.16421900  0.94755300  1
