# generated using pymatgen
data_Nd4Ag2Se7
_symmetry_space_group_name_H-M   'P 1'
_cell_length_a   12.39180400
_cell_length_b   7.51813000
_cell_length_c   7.85592794
_cell_angle_alpha   71.11235616
_cell_angle_beta   90.00000000
_cell_angle_gamma   90.00000000
_symmetry_Int_Tables_number   1
_chemical_formula_structural   Nd4Ag2Se7
_chemical_formula_sum   'Nd8 Ag4 Se14'
_cell_volume   692.47521568
_cell_formula_units_Z   2
loop_
 _symmetry_equiv_pos_site_id
 _symmetry_equiv_pos_as_xyz
  1  'x, y, z'
loop_
 _atom_site_type_symbol
 _atom_site_label
 _atom_site_symmetry_multiplicity
 _atom_site_fract_x
 _atom_site_fract_y
 _atom_site_fract_z
 _atom_site_occupancy
  Nd  Nd0  1  0.20602100  0.17580900  0.20307600  1
  Nd  Nd1  1  0.93942900  0.55543200  0.05266600  1
  Nd  Nd2  1  0.06057100  0.55543200  0.55266600  1
  Nd  Nd3  1  0.79397900  0.17580900  0.70307600  1
  Nd  Nd4  1  0.85229800  0.98499700  0.26077700  1
  Nd  Nd5  1  0.14770200  0.98499700  0.76077700  1
  Nd  Nd6  1  0.37084200  0.48231400  0.75205800  1
  Nd  Nd7  1  0.62915800  0.48231400  0.25205800  1
  Ag  Ag8  1  0.68472600  0.69056200  0.68565200  1
  Ag  Ag9  1  0.44412100  0.09637400  0.55176200  1
  Ag  Ag10  1  0.55587900  0.09637400  0.05176200  1
  Ag  Ag11  1  0.31527400  0.69056200  0.18565200  1
  Se  Se12  1  0.00521700  0.23730300  0.38326600  1
  Se  Se13  1  0.16948700  0.56241200  0.91674100  1
  Se  Se14  1  0.83051300  0.56241200  0.41674100  1
  Se  Se15  1  0.70938100  0.85054500  0.00402000  1
  Se  Se16  1  0.06781700  0.82837500  0.18155400  1
  Se  Se17  1  0.65439000  0.04517000  0.45030400  1
  Se  Se18  1  0.34561000  0.04517000  0.95030400  1
  Se  Se19  1  0.93218300  0.82837500  0.68155400  1
  Se  Se20  1  0.42388900  0.39731600  0.13577600  1
  Se  Se21  1  0.25104500  0.34339100  0.50634800  1
  Se  Se22  1  0.57611100  0.39731600  0.63577600  1
  Se  Se23  1  0.99478300  0.23730300  0.88326600  1
  Se  Se24  1  0.74895500  0.34339100  0.00634800  1
  Se  Se25  1  0.29061900  0.85054500  0.50402000  1
