# generated using pymatgen
data_Zr5Pb3
_symmetry_space_group_name_H-M   'P 1'
_cell_length_a   8.99217476
_cell_length_b   8.99217476
_cell_length_c   6.21382500
_cell_angle_alpha   90.00000000
_cell_angle_beta   90.00000000
_cell_angle_gamma   120.00000561
_symmetry_Int_Tables_number   1
_chemical_formula_structural   Zr5Pb3
_chemical_formula_sum   'Zr10 Pb6'
_cell_volume   435.13007624
_cell_formula_units_Z   2
loop_
 _symmetry_equiv_pos_site_id
 _symmetry_equiv_pos_as_xyz
  1  'x, y, z'
loop_
 _atom_site_type_symbol
 _atom_site_label
 _atom_site_symmetry_multiplicity
 _atom_site_fract_x
 _atom_site_fract_y
 _atom_site_fract_z
 _atom_site_occupancy
  Zr  Zr0  1  0.75238800  0.75238800  0.25000000  1
  Zr  Zr1  1  0.00000000  0.24761200  0.25000000  1
  Zr  Zr2  1  0.75238800  0.00000000  0.75000000  1
  Zr  Zr3  1  0.33333300  0.66666700  0.50000000  1
  Zr  Zr4  1  0.24761200  0.00000000  0.25000000  1
  Zr  Zr5  1  0.66666700  0.33333300  0.50000000  1
  Zr  Zr6  1  0.00000000  0.75238800  0.75000000  1
  Zr  Zr7  1  0.33333300  0.66666700  0.00000000  1
  Zr  Zr8  1  0.24761200  0.24761200  0.75000000  1
  Zr  Zr9  1  0.66666700  0.33333300  0.00000000  1
  Pb  Pb10  1  0.61035700  0.61035700  0.75000000  1
  Pb  Pb11  1  0.38964300  0.00000000  0.75000000  1
  Pb  Pb12  1  0.61035700  0.00000000  0.25000000  1
  Pb  Pb13  1  0.00000000  0.38964300  0.75000000  1
  Pb  Pb14  1  0.38964300  0.38964300  0.25000000  1
  Pb  Pb15  1  0.00000000  0.61035700  0.25000000  1
