# generated using pymatgen
data_K2S5
_symmetry_space_group_name_H-M   'P 1'
_cell_length_a   6.81682900
_cell_length_b   8.73230700
_cell_length_c   14.52978100
_cell_angle_alpha   90.00000000
_cell_angle_beta   90.00000000
_cell_angle_gamma   90.00000000
_symmetry_Int_Tables_number   1
_chemical_formula_structural   K2S5
_chemical_formula_sum   'K8 S20'
_cell_volume   864.90909509
_cell_formula_units_Z   4
loop_
 _symmetry_equiv_pos_site_id
 _symmetry_equiv_pos_as_xyz
  1  'x, y, z'
loop_
 _atom_site_type_symbol
 _atom_site_label
 _atom_site_symmetry_multiplicity
 _atom_site_fract_x
 _atom_site_fract_y
 _atom_site_fract_z
 _atom_site_occupancy
  K  K0  1  0.87344000  0.66659800  0.89317700  1
  K  K1  1  0.05186900  0.96851700  0.30603900  1
  K  K2  1  0.44813100  0.03148300  0.80603900  1
  K  K3  1  0.62656000  0.33340200  0.39317700  1
  K  K4  1  0.94813100  0.46851700  0.19396100  1
  K  K5  1  0.37344000  0.83340200  0.10682300  1
  K  K6  1  0.12656000  0.16659800  0.60682300  1
  K  K7  1  0.55186900  0.53148300  0.69396100  1
  S  S8  1  0.88391300  0.64457400  0.39700900  1
  S  S9  1  0.14516900  0.55116600  0.42958000  1
  S  S10  1  0.61608700  0.35542600  0.89700900  1
  S  S11  1  0.11608700  0.14457400  0.10299100  1
  S  S12  1  0.91516400  0.98372700  0.78044500  1
  S  S13  1  0.15167700  0.32772000  0.39195800  1
  S  S14  1  0.38391300  0.85542600  0.60299100  1
  S  S15  1  0.35483100  0.44883400  0.92958000  1
  S  S16  1  0.12117300  0.33573200  0.82465700  1
  S  S17  1  0.65167700  0.17228000  0.60804200  1
  S  S18  1  0.62117300  0.16426800  0.17534300  1
  S  S19  1  0.08483600  0.48372700  0.71955500  1
  S  S20  1  0.41516400  0.51627300  0.21955500  1
  S  S21  1  0.37882700  0.66426800  0.32465700  1
  S  S22  1  0.58483600  0.01627300  0.28044500  1
  S  S23  1  0.34832300  0.67228000  0.89195800  1
  S  S24  1  0.64516900  0.94883400  0.57042000  1
  S  S25  1  0.87882700  0.83573200  0.67534300  1
  S  S26  1  0.84832300  0.82772000  0.10804200  1
  S  S27  1  0.85483100  0.05116600  0.07042000  1
