# generated using pymatgen
data_LaHBr2
_symmetry_space_group_name_H-M   'P 1'
_cell_length_a   4.13784398
_cell_length_b   4.13784398
_cell_length_c   14.83968100
_cell_angle_alpha   90.00000000
_cell_angle_beta   90.00000000
_cell_angle_gamma   119.99999971
_symmetry_Int_Tables_number   1
_chemical_formula_structural   LaHBr2
_chemical_formula_sum   'La2 H2 Br4'
_cell_volume   220.04090436
_cell_formula_units_Z   2
loop_
 _symmetry_equiv_pos_site_id
 _symmetry_equiv_pos_as_xyz
  1  'x, y, z'
loop_
 _atom_site_type_symbol
 _atom_site_label
 _atom_site_symmetry_multiplicity
 _atom_site_fract_x
 _atom_site_fract_y
 _atom_site_fract_z
 _atom_site_occupancy
  La  La0  1  0.00000000  0.00000000  0.25000000  1
  La  La1  1  0.00000000  0.00000000  0.75000000  1
  H  H2  1  0.33333300  0.66666700  0.75000000  1
  H  H3  1  0.66666700  0.33333300  0.25000000  1
  Br  Br4  1  0.33333300  0.66666700  0.11898700  1
  Br  Br5  1  0.66666700  0.33333300  0.88101300  1
  Br  Br6  1  0.66666700  0.33333300  0.61898700  1
  Br  Br7  1  0.33333300  0.66666700  0.38101300  1
