# generated using pymatgen
data_Sr2TlCuO5
_symmetry_space_group_name_H-M   'P 1'
_cell_length_a   3.74078100
_cell_length_b   3.74078100
_cell_length_c   9.12004200
_cell_angle_alpha   90.00000000
_cell_angle_beta   90.00000000
_cell_angle_gamma   90.00000000
_symmetry_Int_Tables_number   1
_chemical_formula_structural   Sr2TlCuO5
_chemical_formula_sum   'Sr2 Tl1 Cu1 O5'
_cell_volume   127.62078323
_cell_formula_units_Z   1
loop_
 _symmetry_equiv_pos_site_id
 _symmetry_equiv_pos_as_xyz
  1  'x, y, z'
loop_
 _atom_site_type_symbol
 _atom_site_label
 _atom_site_symmetry_multiplicity
 _atom_site_fract_x
 _atom_site_fract_y
 _atom_site_fract_z
 _atom_site_occupancy
  Sr  Sr0  1  0.50000000  0.50000000  0.28608500  1
  Sr  Sr1  1  0.50000000  0.50000000  0.71391500  1
  Tl  Tl2  1  0.00000000  0.00000000  0.00000000  1
  Cu  Cu3  1  0.00000000  0.00000000  0.50000000  1
  O  O4  1  0.00000000  0.00000000  0.23118500  1
  O  O5  1  0.00000000  0.00000000  0.76881500  1
  O  O6  1  0.00000000  0.50000000  0.50000000  1
  O  O7  1  0.50000000  0.50000000  0.00000000  1
  O  O8  1  0.50000000  0.00000000  0.50000000  1
