# generated using pymatgen
data_CrCo3O8
_symmetry_space_group_name_H-M   'P 1'
_cell_length_a   5.86842999
_cell_length_b   5.86842999
_cell_length_c   5.86843030
_cell_angle_alpha   58.55085045
_cell_angle_beta   58.55085045
_cell_angle_gamma   58.55084224
_symmetry_Int_Tables_number   1
_chemical_formula_structural   CrCo3O8
_chemical_formula_sum   'Cr1 Co3 O8'
_cell_volume   138.17004438
_cell_formula_units_Z   1
loop_
 _symmetry_equiv_pos_site_id
 _symmetry_equiv_pos_as_xyz
  1  'x, y, z'
loop_
 _atom_site_type_symbol
 _atom_site_label
 _atom_site_symmetry_multiplicity
 _atom_site_fract_x
 _atom_site_fract_y
 _atom_site_fract_z
 _atom_site_occupancy
  Cr  Cr0  1  0.00000000  0.00000000  0.00000000  1
  Co  Co1  1  0.50000000  0.00000000  0.50000000  1
  Co  Co2  1  0.50000000  0.50000000  0.00000000  1
  Co  Co3  1  0.00000000  0.50000000  0.50000000  1
  O  O4  1  0.27536700  0.76445700  0.76445700  1
  O  O5  1  0.76445700  0.76445700  0.27536700  1
  O  O6  1  0.76445700  0.27536700  0.76445700  1
  O  O7  1  0.26813500  0.26813500  0.26813500  1
  O  O8  1  0.73186500  0.73186500  0.73186500  1
  O  O9  1  0.23554300  0.72463300  0.23554300  1
  O  O10  1  0.23554300  0.23554300  0.72463300  1
  O  O11  1  0.72463300  0.23554300  0.23554300  1
