# generated using pymatgen
data_Ba2Ga6O11
_symmetry_space_group_name_H-M   'P 1'
_cell_length_a   5.16121100
_cell_length_b   8.93236300
_cell_length_c   23.22310100
_cell_angle_alpha   90.00000000
_cell_angle_beta   90.00000000
_cell_angle_gamma   90.00000000
_symmetry_Int_Tables_number   1
_chemical_formula_structural   Ba2Ga6O11
_chemical_formula_sum   'Ba8 Ga24 O44'
_cell_volume   1070.62699390
_cell_formula_units_Z   4
loop_
 _symmetry_equiv_pos_site_id
 _symmetry_equiv_pos_as_xyz
  1  'x, y, z'
loop_
 _atom_site_type_symbol
 _atom_site_label
 _atom_site_symmetry_multiplicity
 _atom_site_fract_x
 _atom_site_fract_y
 _atom_site_fract_z
 _atom_site_occupancy
  Ba  Ba0  1  0.39771100  0.00000000  0.14065100  1
  Ba  Ba1  1  0.47360600  0.50000000  0.15516900  1
  Ba  Ba2  1  0.97360600  0.00000000  0.34483100  1
  Ba  Ba3  1  0.89771100  0.50000000  0.35934900  1
  Ba  Ba4  1  0.10228900  0.50000000  0.64065100  1
  Ba  Ba5  1  0.02639400  0.00000000  0.65516900  1
  Ba  Ba6  1  0.52639400  0.50000000  0.84483100  1
  Ba  Ba7  1  0.60228900  0.00000000  0.85934900  1
  Ga  Ga8  1  0.00000000  0.00000000  0.00000000  1
  Ga  Ga9  1  0.50000000  0.83297300  0.00000000  1
  Ga  Ga10  1  0.50000000  0.50000000  0.00000000  1
  Ga  Ga11  1  0.50000000  0.16702700  0.00000000  1
  Ga  Ga12  1  0.99449600  0.67941300  0.07318400  1
  Ga  Ga13  1  0.99449600  0.32058700  0.07318400  1
  Ga  Ga14  1  0.88893300  0.20613300  0.21351400  1
  Ga  Ga15  1  0.88893300  0.79386700  0.21351400  1
  Ga  Ga16  1  0.38893300  0.70613300  0.28648600  1
  Ga  Ga17  1  0.38893300  0.29386700  0.28648600  1
  Ga  Ga18  1  0.49449600  0.82058700  0.42681600  1
  Ga  Ga19  1  0.49449600  0.17941300  0.42681600  1
  Ga  Ga20  1  0.00000000  0.00000000  0.50000000  1
  Ga  Ga21  1  0.00000000  0.66702700  0.50000000  1
  Ga  Ga22  1  0.00000000  0.33297300  0.50000000  1
  Ga  Ga23  1  0.50000000  0.50000000  0.50000000  1
  Ga  Ga24  1  0.50550400  0.17941300  0.57318400  1
  Ga  Ga25  1  0.50550400  0.82058700  0.57318400  1
  Ga  Ga26  1  0.61106700  0.70613300  0.71351400  1
  Ga  Ga27  1  0.61106700  0.29386700  0.71351400  1
  Ga  Ga28  1  0.11106700  0.79386700  0.78648600  1
  Ga  Ga29  1  0.11106700  0.20613300  0.78648600  1
  Ga  Ga30  1  0.00550400  0.67941300  0.92681600  1
  Ga  Ga31  1  0.00550400  0.32058700  0.92681600  1
  O  O32  1  0.67373000  0.00000000  0.04395900  1
  O  O33  1  0.17966000  0.84353400  0.04922100  1
  O  O34  1  0.17966000  0.15646600  0.04922100  1
  O  O35  1  0.65023400  0.66345100  0.04837100  1
  O  O36  1  0.65023400  0.33654900  0.04837100  1
  O  O37  1  0.17951800  0.50000000  0.05620700  1
  O  O38  1  0.00754500  0.32349600  0.15366600  1
  O  O39  1  0.00754500  0.67650400  0.15366600  1
  O  O40  1  0.95034100  0.00000000  0.20234200  1
  O  O41  1  0.52919500  0.23582500  0.21574700  1
  O  O42  1  0.52919500  0.76417500  0.21574700  1
  O  O43  1  0.02919500  0.73582500  0.28425300  1
  O  O44  1  0.02919500  0.26417500  0.28425300  1
  O  O45  1  0.45034100  0.50000000  0.29765800  1
  O  O46  1  0.50754500  0.82349600  0.34633400  1
  O  O47  1  0.50754500  0.17650400  0.34633400  1
  O  O48  1  0.67951800  0.00000000  0.44379300  1
  O  O49  1  0.15023400  0.83654900  0.45162900  1
  O  O50  1  0.15023400  0.16345100  0.45162900  1
  O  O51  1  0.67966000  0.34353400  0.45077900  1
  O  O52  1  0.67966000  0.65646600  0.45077900  1
  O  O53  1  0.17373000  0.50000000  0.45604100  1
  O  O54  1  0.82627000  0.50000000  0.54395900  1
  O  O55  1  0.32034000  0.65646600  0.54922100  1
  O  O56  1  0.32034000  0.34353400  0.54922100  1
  O  O57  1  0.84976600  0.83654900  0.54837100  1
  O  O58  1  0.84976600  0.16345100  0.54837100  1
  O  O59  1  0.32048200  0.00000000  0.55620700  1
  O  O60  1  0.49245500  0.17650400  0.65366600  1
  O  O61  1  0.49245500  0.82349600  0.65366600  1
  O  O62  1  0.54965900  0.50000000  0.70234200  1
  O  O63  1  0.97080500  0.26417500  0.71574700  1
  O  O64  1  0.97080500  0.73582500  0.71574700  1
  O  O65  1  0.47080500  0.76417500  0.78425300  1
  O  O66  1  0.47080500  0.23582500  0.78425300  1
  O  O67  1  0.04965900  0.00000000  0.79765800  1
  O  O68  1  0.99245500  0.32349600  0.84633400  1
  O  O69  1  0.99245500  0.67650400  0.84633400  1
  O  O70  1  0.82048200  0.50000000  0.94379300  1
  O  O71  1  0.34976600  0.66345100  0.95162900  1
  O  O72  1  0.34976600  0.33654900  0.95162900  1
  O  O73  1  0.82034000  0.84353400  0.95077900  1
  O  O74  1  0.82034000  0.15646600  0.95077900  1
  O  O75  1  0.32627000  0.00000000  0.95604100  1
