# generated using pymatgen
data_Ga2WO6
_symmetry_space_group_name_H-M   'P 1'
_cell_length_a   4.65269700
_cell_length_b   4.65269700
_cell_length_c   9.03835200
_cell_angle_alpha   90.00000000
_cell_angle_beta   90.00000000
_cell_angle_gamma   90.00000000
_symmetry_Int_Tables_number   1
_chemical_formula_structural   Ga2WO6
_chemical_formula_sum   'Ga4 W2 O12'
_cell_volume   195.65853271
_cell_formula_units_Z   2
loop_
 _symmetry_equiv_pos_site_id
 _symmetry_equiv_pos_as_xyz
  1  'x, y, z'
loop_
 _atom_site_type_symbol
 _atom_site_label
 _atom_site_symmetry_multiplicity
 _atom_site_fract_x
 _atom_site_fract_y
 _atom_site_fract_z
 _atom_site_occupancy
  Ga  Ga0  1  0.50000000  0.50000000  0.33648500  1
  Ga  Ga1  1  0.50000000  0.50000000  0.66351500  1
  Ga  Ga2  1  0.00000000  0.00000000  0.16351500  1
  Ga  Ga3  1  0.00000000  0.00000000  0.83648500  1
  W  W4  1  0.50000000  0.50000000  0.00000000  1
  W  W5  1  0.00000000  0.00000000  0.50000000  1
  O  O6  1  0.69564100  0.69564100  0.16132000  1
  O  O7  1  0.69564100  0.69564100  0.83868000  1
  O  O8  1  0.70044900  0.70044900  0.50000000  1
  O  O9  1  0.79955100  0.20044900  0.00000000  1
  O  O10  1  0.80435900  0.19564100  0.33868000  1
  O  O11  1  0.80435900  0.19564100  0.66132000  1
  O  O12  1  0.19564100  0.80435900  0.33868000  1
  O  O13  1  0.19564100  0.80435900  0.66132000  1
  O  O14  1  0.20044900  0.79955100  0.00000000  1
  O  O15  1  0.29955100  0.29955100  0.50000000  1
  O  O16  1  0.30435900  0.30435900  0.16132000  1
  O  O17  1  0.30435900  0.30435900  0.83868000  1
