# generated using pymatgen
data_Gd3AsO7
_symmetry_space_group_name_H-M   'P 1'
_cell_length_a   7.35617900
_cell_length_b   7.37866000
_cell_length_c   10.54630700
_cell_angle_alpha   90.00000000
_cell_angle_beta   90.00000000
_cell_angle_gamma   90.00000000
_symmetry_Int_Tables_number   1
_chemical_formula_structural   Gd3AsO7
_chemical_formula_sum   'Gd12 As4 O28'
_cell_volume   572.44029506
_cell_formula_units_Z   4
loop_
 _symmetry_equiv_pos_site_id
 _symmetry_equiv_pos_as_xyz
  1  'x, y, z'
loop_
 _atom_site_type_symbol
 _atom_site_label
 _atom_site_symmetry_multiplicity
 _atom_site_fract_x
 _atom_site_fract_y
 _atom_site_fract_z
 _atom_site_occupancy
  Gd  Gd0  1  0.27264600  0.00370600  0.75000000  1
  Gd  Gd1  1  0.45436500  0.25346300  0.02602600  1
  Gd  Gd2  1  0.45436500  0.25346300  0.47397400  1
  Gd  Gd3  1  0.95436500  0.24653700  0.52602600  1
  Gd  Gd4  1  0.95436500  0.24653700  0.97397400  1
  Gd  Gd5  1  0.77264600  0.49629400  0.25000000  1
  Gd  Gd6  1  0.22735400  0.50370600  0.75000000  1
  Gd  Gd7  1  0.04563500  0.75346300  0.02602600  1
  Gd  Gd8  1  0.04563500  0.75346300  0.47397400  1
  Gd  Gd9  1  0.54563500  0.74653700  0.52602600  1
  Gd  Gd10  1  0.54563500  0.74653700  0.97397400  1
  Gd  Gd11  1  0.72735400  0.99629400  0.25000000  1
  As  As12  1  0.25084600  0.00199600  0.25000000  1
  As  As13  1  0.75084600  0.49800400  0.75000000  1
  As  As14  1  0.24915400  0.50199600  0.25000000  1
  As  As15  1  0.74915400  0.99800400  0.75000000  1
  O  O16  1  0.56575600  0.03173700  0.62843100  1
  O  O17  1  0.56575600  0.03173700  0.87156900  1
  O  O18  1  0.07960200  0.03654400  0.12461000  1
  O  O19  1  0.07960200  0.03654400  0.37539000  1
  O  O20  1  0.82748400  0.24746100  0.75000000  1
  O  O21  1  0.22906900  0.25074300  0.61719800  1
  O  O22  1  0.22906900  0.25074300  0.88280200  1
  O  O23  1  0.72906900  0.24925700  0.11719800  1
  O  O24  1  0.72906900  0.24925700  0.38280200  1
  O  O25  1  0.32748400  0.25253900  0.25000000  1
  O  O26  1  0.57960200  0.46345600  0.62461000  1
  O  O27  1  0.57960200  0.46345600  0.87539000  1
  O  O28  1  0.06575600  0.46826300  0.12843100  1
  O  O29  1  0.06575600  0.46826300  0.37156900  1
  O  O30  1  0.93424400  0.53173700  0.62843100  1
  O  O31  1  0.93424400  0.53173700  0.87156900  1
  O  O32  1  0.42039800  0.53654400  0.12461000  1
  O  O33  1  0.42039800  0.53654400  0.37539000  1
  O  O34  1  0.67251600  0.74746100  0.75000000  1
  O  O35  1  0.27093100  0.75074300  0.61719800  1
  O  O36  1  0.27093100  0.75074300  0.88280200  1
  O  O37  1  0.77093100  0.74925700  0.11719800  1
  O  O38  1  0.77093100  0.74925700  0.38280200  1
  O  O39  1  0.17251600  0.75253900  0.25000000  1
  O  O40  1  0.92039800  0.96345600  0.62461000  1
  O  O41  1  0.92039800  0.96345600  0.87539000  1
  O  O42  1  0.43424400  0.96826300  0.12843100  1
  O  O43  1  0.43424400  0.96826300  0.37156900  1
