# generated using pymatgen
data_BaCa2I6
_symmetry_space_group_name_H-M   'P 1'
_cell_length_a   10.37662500
_cell_length_b   9.39660500
_cell_length_c   17.50973433
_cell_angle_alpha   65.65442746
_cell_angle_beta   90.00000000
_cell_angle_gamma   90.00000000
_symmetry_Int_Tables_number   1
_chemical_formula_structural   BaCa2I6
_chemical_formula_sum   'Ba4 Ca8 I24'
_cell_volume   1555.46807050
_cell_formula_units_Z   4
loop_
 _symmetry_equiv_pos_site_id
 _symmetry_equiv_pos_as_xyz
  1  'x, y, z'
loop_
 _atom_site_type_symbol
 _atom_site_label
 _atom_site_symmetry_multiplicity
 _atom_site_fract_x
 _atom_site_fract_y
 _atom_site_fract_z
 _atom_site_occupancy
  Ba  Ba0  1  0.68025000  0.90385900  0.41276500  1
  Ba  Ba1  1  0.18025000  0.09614100  0.08723500  1
  Ba  Ba2  1  0.81975000  0.90385900  0.91276500  1
  Ba  Ba3  1  0.31975000  0.09614100  0.58723500  1
  Ca  Ca4  1  0.65205600  0.32403800  0.07512800  1
  Ca  Ca5  1  0.04015700  0.59658600  0.72684200  1
  Ca  Ca6  1  0.54015700  0.40341400  0.77315800  1
  Ca  Ca7  1  0.15205600  0.67596200  0.42487200  1
  Ca  Ca8  1  0.84794400  0.32403800  0.57512800  1
  Ca  Ca9  1  0.45984300  0.59658600  0.22684200  1
  Ca  Ca10  1  0.95984300  0.40341400  0.27315800  1
  Ca  Ca11  1  0.34794400  0.67596200  0.92487200  1
  I  I12  1  0.34580300  0.91841400  0.44425800  1
  I  I13  1  0.33723100  0.68966200  0.72482800  1
  I  I14  1  0.64970100  0.60691900  0.87568100  1
  I  I15  1  0.96390800  0.77682800  0.53795300  1
  I  I16  1  0.10903400  0.46252600  0.91705100  1
  I  I17  1  0.02355300  0.07450400  0.27442900  1
  I  I18  1  0.52355300  0.92549600  0.22557100  1
  I  I19  1  0.46390800  0.22317200  0.96204700  1
  I  I20  1  0.60903400  0.53747400  0.58294900  1
  I  I21  1  0.14970100  0.39308100  0.62431900  1
  I  I22  1  0.83723100  0.31033800  0.77517200  1
  I  I23  1  0.84580300  0.08158600  0.05574200  1
  I  I24  1  0.15419700  0.91841400  0.94425800  1
  I  I25  1  0.16276900  0.68966200  0.22482800  1
  I  I26  1  0.85029900  0.60691900  0.37568100  1
  I  I27  1  0.39096600  0.46252600  0.41705100  1
  I  I28  1  0.53609200  0.77682800  0.03795300  1
  I  I29  1  0.47644700  0.07450400  0.77442900  1
  I  I30  1  0.97644700  0.92549600  0.72557100  1
  I  I31  1  0.89096600  0.53747400  0.08294900  1
  I  I32  1  0.03609200  0.22317200  0.46204700  1
  I  I33  1  0.35029900  0.39308100  0.12431900  1
  I  I34  1  0.66276900  0.31033800  0.27517200  1
  I  I35  1  0.65419700  0.08158600  0.55574200  1
