# generated using pymatgen
data_Hf2N2O
_symmetry_space_group_name_H-M   'P 1'
_cell_length_a   8.70837100
_cell_length_b   8.73467460
_cell_length_c   8.73775577
_cell_angle_alpha   109.53258109
_cell_angle_beta   109.52239509
_cell_angle_gamma   109.24775924
_symmetry_Int_Tables_number   1
_chemical_formula_structural   Hf2N2O
_chemical_formula_sum   'Hf16 N16 O8'
_cell_volume   512.33283952
_cell_formula_units_Z   8
loop_
 _symmetry_equiv_pos_site_id
 _symmetry_equiv_pos_as_xyz
  1  'x, y, z'
loop_
 _atom_site_type_symbol
 _atom_site_label
 _atom_site_symmetry_multiplicity
 _atom_site_fract_x
 _atom_site_fract_y
 _atom_site_fract_z
 _atom_site_occupancy
  Hf  Hf0  1  0.54404500  0.79331200  0.75935100  1
  Hf  Hf1  1  0.78794100  0.75702500  0.53215400  1
  Hf  Hf2  1  0.00523700  0.00976500  0.99726700  1
  Hf  Hf3  1  0.27787800  0.74432400  0.02125000  1
  Hf  Hf4  1  0.50896300  0.00665700  0.50885000  1
  Hf  Hf5  1  0.99800000  0.50126500  0.50073400  1
  Hf  Hf6  1  0.96411900  0.71183500  0.25452300  1
  Hf  Hf7  1  0.74725300  0.45375600  0.71810400  1
  Hf  Hf8  1  0.25229700  0.53293100  0.28591100  1
  Hf  Hf9  1  0.74767900  0.96208300  0.21220800  1
  Hf  Hf10  1  0.24538600  0.03906600  0.78757100  1
  Hf  Hf11  1  0.03079800  0.28165100  0.73857800  1
  Hf  Hf12  1  0.50825100  0.49862200  0.99786300  1
  Hf  Hf13  1  0.21432200  0.24865900  0.46737700  1
  Hf  Hf14  1  0.72455900  0.25852500  0.97589500  1
  Hf  Hf15  1  0.45385800  0.21107300  0.24236200  1
  N  N16  1  0.77135100  0.03973400  0.00787400  1
  N  N17  1  0.47960200  0.72443700  0.94798000  1
  N  N18  1  0.94978400  0.22510200  0.45859900  1
  N  N19  1  0.52919800  0.75942000  0.49039600  1
  N  N20  1  0.03199700  0.54256200  0.77085200  1
  N  N21  1  0.46481900  0.23418900  0.50716900  1
  N  N22  1  0.72994900  0.74175300  0.27351100  1
  N  N23  1  0.97243500  0.45901900  0.23074300  1
  N  N24  1  0.98580000  0.03283500  0.76190000  1
  N  N25  1  0.76888500  0.22128700  0.73662100  1
  N  N26  1  0.74110600  0.51646900  0.96587900  1
  N  N27  1  0.05054200  0.77299100  0.53768700  1
  N  N28  1  0.23529800  0.27393500  0.22547700  1
  N  N29  1  0.51714800  0.27558300  0.05047300  1
  N  N30  1  0.27260400  0.26378100  0.72874700  1
  N  N31  1  0.22895400  0.95646100  0.99524700  1
  O  O32  1  0.54581700  0.00654900  0.27633100  1
  O  O33  1  0.27232300  0.53225400  0.54721200  1
  O  O34  1  0.01558600  0.96526000  0.24052900  1
  O  O35  1  0.22688400  0.77567100  0.25720300  1
  O  O36  1  0.25987100  0.49149900  0.03848100  1
  O  O37  1  0.75934900  0.72361100  0.76999700  1
  O  O38  1  0.45146900  0.98632700  0.72434900  1
  O  O39  1  0.72864100  0.46872100  0.45674500  1
