# generated using pymatgen
data_Hg2SeO4
_symmetry_space_group_name_H-M   'P 1'
_cell_length_a   4.84605000
_cell_length_b   6.42865400
_cell_length_c   8.86581369
_cell_angle_alpha   87.74187165
_cell_angle_beta   90.00000000
_cell_angle_gamma   90.00000000
_symmetry_Int_Tables_number   1
_chemical_formula_structural   Hg2SeO4
_chemical_formula_sum   'Hg4 Se2 O8'
_cell_volume   275.98734195
_cell_formula_units_Z   2
loop_
 _symmetry_equiv_pos_site_id
 _symmetry_equiv_pos_as_xyz
  1  'x, y, z'
loop_
 _atom_site_type_symbol
 _atom_site_label
 _atom_site_symmetry_multiplicity
 _atom_site_fract_x
 _atom_site_fract_y
 _atom_site_fract_z
 _atom_site_occupancy
  Hg  Hg0  1  0.07233000  0.19026700  0.52178800  1
  Hg  Hg1  1  0.07233000  0.80973300  0.97821200  1
  Hg  Hg2  1  0.92767000  0.80973300  0.47821200  1
  Hg  Hg3  1  0.92767000  0.19026700  0.02178800  1
  Se  Se4  1  0.44299200  0.50000000  0.75000000  1
  Se  Se5  1  0.55700800  0.50000000  0.25000000  1
  O  O6  1  0.77126800  0.50537000  0.40437000  1
  O  O7  1  0.77126800  0.49463000  0.09563000  1
  O  O8  1  0.22873200  0.49463000  0.59563000  1
  O  O9  1  0.22873200  0.50537000  0.90437000  1
  O  O10  1  0.37944400  0.72002400  0.23614500  1
  O  O11  1  0.37944400  0.27997600  0.26385500  1
  O  O12  1  0.62055600  0.72002400  0.73614500  1
  O  O13  1  0.62055600  0.27997600  0.76385500  1
