# generated using pymatgen
data_PH9(NO2)2
_symmetry_space_group_name_H-M   'P 1'
_cell_length_a   6.71585000
_cell_length_b   8.10135000
_cell_length_c   10.80436420
_cell_angle_alpha   70.23109126
_cell_angle_beta   90.00000000
_cell_angle_gamma   90.00000000
_symmetry_Int_Tables_number   1
_chemical_formula_structural   PH9(NO2)2
_chemical_formula_sum   'P4 H36 N8 O16'
_cell_volume   553.19336605
_cell_formula_units_Z   4
loop_
 _symmetry_equiv_pos_site_id
 _symmetry_equiv_pos_as_xyz
  1  'x, y, z'
loop_
 _atom_site_type_symbol
 _atom_site_label
 _atom_site_symmetry_multiplicity
 _atom_site_fract_x
 _atom_site_fract_y
 _atom_site_fract_z
 _atom_site_occupancy
  P  P0  1  0.60904600  0.31695700  0.75087800  1
  P  P1  1  0.10904600  0.18304300  0.24912200  1
  P  P2  1  0.39095400  0.68304300  0.24912200  1
  P  P3  1  0.89095400  0.81695700  0.75087800  1
  H  H4  1  0.63213100  0.55005700  0.82168800  1
  H  H5  1  0.13213100  0.94994300  0.17831200  1
  H  H6  1  0.36786900  0.44994300  0.17831200  1
  H  H7  1  0.86786900  0.05005700  0.82168800  1
  H  H8  1  0.33489100  0.91281900  0.47725900  1
  H  H9  1  0.83489100  0.58718100  0.52274100  1
  H  H10  1  0.66510900  0.08718100  0.52274100  1
  H  H11  1  0.16510900  0.41281900  0.47725900  1
  H  H12  1  0.52073100  0.80423300  0.58424600  1
  H  H13  1  0.02073100  0.69576700  0.41575400  1
  H  H14  1  0.47926900  0.19576700  0.41575400  1
  H  H15  1  0.97926900  0.30423300  0.58424600  1
  H  H16  1  0.37954900  0.70221400  0.49786200  1
  H  H17  1  0.87954900  0.79778600  0.50213800  1
  H  H18  1  0.62045100  0.29778600  0.50213800  1
  H  H19  1  0.12045100  0.20221400  0.49786200  1
  H  H20  1  0.27310000  0.75758800  0.62239100  1
  H  H21  1  0.77310000  0.74241200  0.37760900  1
  H  H22  1  0.72690000  0.24241200  0.37760900  1
  H  H23  1  0.22690000  0.25758800  0.62239100  1
  H  H24  1  0.10019300  0.49706600  0.82394100  1
  H  H25  1  0.60019300  0.00293400  0.17605900  1
  H  H26  1  0.89980700  0.50293400  0.17605900  1
  H  H27  1  0.39980700  0.99706600  0.82394100  1
  H  H28  1  0.97698500  0.29858800  0.87534900  1
  H  H29  1  0.47698500  0.20141200  0.12465100  1
  H  H30  1  0.02301500  0.70141200  0.12465100  1
  H  H31  1  0.52301500  0.79858800  0.87534900  1
  H  H32  1  0.22263400  0.31168700  0.83135100  1
  H  H33  1  0.72263400  0.18831300  0.16864900  1
  H  H34  1  0.77736600  0.68831300  0.16864900  1
  H  H35  1  0.27736600  0.81168700  0.83135100  1
  H  H36  1  0.15691200  0.34304300  0.97346700  1
  H  H37  1  0.65691200  0.15695700  0.02653300  1
  H  H38  1  0.84308800  0.65695700  0.02653300  1
  H  H39  1  0.34308800  0.84304300  0.97346700  1
  N  N40  1  0.38034600  0.79332100  0.54684000  1
  N  N41  1  0.88034600  0.70667900  0.45316000  1
  N  N42  1  0.61965400  0.20667900  0.45316000  1
  N  N43  1  0.11965400  0.29332100  0.54684000  1
  N  N44  1  0.11279800  0.36167200  0.87653700  1
  N  N45  1  0.61279800  0.13832800  0.12346300  1
  N  N46  1  0.88720200  0.63832800  0.12346300  1
  N  N47  1  0.38720200  0.86167200  0.87653700  1
  O  O48  1  0.53012000  0.47525800  0.79548200  1
  O  O49  1  0.03012000  0.02474200  0.20451800  1
  O  O50  1  0.46988000  0.52474200  0.20451800  1
  O  O51  1  0.96988000  0.97525800  0.79548200  1
  O  O52  1  0.41563400  0.22229200  0.73621800  1
  O  O53  1  0.91563400  0.27770800  0.26378200  1
  O  O54  1  0.58436600  0.77770800  0.26378200  1
  O  O55  1  0.08436600  0.72229200  0.73621800  1
  O  O56  1  0.72704300  0.38967600  0.62119500  1
  O  O57  1  0.22704300  0.11032400  0.37880500  1
  O  O58  1  0.27295700  0.61032400  0.37880500  1
  O  O59  1  0.77295700  0.88967600  0.62119500  1
  O  O60  1  0.74265100  0.19677000  0.86258600  1
  O  O61  1  0.24265100  0.30323000  0.13741400  1
  O  O62  1  0.25734900  0.80323000  0.13741400  1
  O  O63  1  0.75734900  0.69677000  0.86258600  1
