# generated using pymatgen
data_Pb(BrO3)2
_symmetry_space_group_name_H-M   'P 1'
_cell_length_a   5.71542300
_cell_length_b   6.31381300
_cell_length_c   16.51975800
_cell_angle_alpha   90.00000000
_cell_angle_beta   90.00000000
_cell_angle_gamma   90.00000000
_symmetry_Int_Tables_number   1
_chemical_formula_structural   Pb(BrO3)2
_chemical_formula_sum   'Pb4 Br8 O24'
_cell_volume   596.13383803
_cell_formula_units_Z   4
loop_
 _symmetry_equiv_pos_site_id
 _symmetry_equiv_pos_as_xyz
  1  'x, y, z'
loop_
 _atom_site_type_symbol
 _atom_site_label
 _atom_site_symmetry_multiplicity
 _atom_site_fract_x
 _atom_site_fract_y
 _atom_site_fract_z
 _atom_site_occupancy
  Pb  Pb0  1  0.25928800  0.75000000  0.00000000  1
  Pb  Pb1  1  0.74071200  0.25000000  0.00000000  1
  Pb  Pb2  1  0.24071200  0.25000000  0.50000000  1
  Pb  Pb3  1  0.75928800  0.75000000  0.50000000  1
  Br  Br4  1  0.26178700  0.21698700  0.15368400  1
  Br  Br5  1  0.73821300  0.71698700  0.15368400  1
  Br  Br6  1  0.23821300  0.71698700  0.34631600  1
  Br  Br7  1  0.76178700  0.21698700  0.34631600  1
  Br  Br8  1  0.23821300  0.78301300  0.65368400  1
  Br  Br9  1  0.76178700  0.28301300  0.65368400  1
  Br  Br10  1  0.26178700  0.28301300  0.84631600  1
  Br  Br11  1  0.73821300  0.78301300  0.84631600  1
  O  O12  1  0.60584100  0.60404300  0.06856300  1
  O  O13  1  0.39415900  0.10404300  0.06856300  1
  O  O14  1  0.89966900  0.91265500  0.10980000  1
  O  O15  1  0.10033100  0.41265500  0.10980000  1
  O  O16  1  0.52210000  0.83223900  0.20461300  1
  O  O17  1  0.47790000  0.33223900  0.20461300  1
  O  O18  1  0.97790000  0.33223900  0.29538700  1
  O  O19  1  0.02210000  0.83223900  0.29538700  1
  O  O20  1  0.39966900  0.91265500  0.39020000  1
  O  O21  1  0.60033100  0.41265500  0.39020000  1
  O  O22  1  0.10584100  0.60404300  0.43143700  1
  O  O23  1  0.89415900  0.10404300  0.43143700  1
  O  O24  1  0.10584100  0.89595700  0.56856300  1
  O  O25  1  0.89415900  0.39595700  0.56856300  1
  O  O26  1  0.39966900  0.58734500  0.60980000  1
  O  O27  1  0.60033100  0.08734500  0.60980000  1
  O  O28  1  0.97790000  0.16776100  0.70461300  1
  O  O29  1  0.02210000  0.66776100  0.70461300  1
  O  O30  1  0.52210000  0.66776100  0.79538700  1
  O  O31  1  0.47790000  0.16776100  0.79538700  1
  O  O32  1  0.10033100  0.08734500  0.89020000  1
  O  O33  1  0.89966900  0.58734500  0.89020000  1
  O  O34  1  0.39415900  0.39595700  0.93143700  1
  O  O35  1  0.60584100  0.89595700  0.93143700  1
