# generated using pymatgen
data_Er(BRh)4
_symmetry_space_group_name_H-M   'P 1'
_cell_length_a   5.33630400
_cell_length_b   5.33630400
_cell_length_c   7.44528000
_cell_angle_alpha   90.00000000
_cell_angle_beta   90.00000000
_cell_angle_gamma   90.00000000
_symmetry_Int_Tables_number   1
_chemical_formula_structural   Er(BRh)4
_chemical_formula_sum   'Er2 B8 Rh8'
_cell_volume   212.01283845
_cell_formula_units_Z   2
loop_
 _symmetry_equiv_pos_site_id
 _symmetry_equiv_pos_as_xyz
  1  'x, y, z'
loop_
 _atom_site_type_symbol
 _atom_site_label
 _atom_site_symmetry_multiplicity
 _atom_site_fract_x
 _atom_site_fract_y
 _atom_site_fract_z
 _atom_site_occupancy
  Er  Er0  1  0.50000000  0.50000000  0.50000000  1
  Er  Er1  1  0.00000000  0.00000000  0.00000000  1
  B  B2  1  0.16859100  0.50000000  0.14884000  1
  B  B3  1  0.83140900  0.50000000  0.14884000  1
  B  B4  1  0.00000000  0.66859100  0.64884000  1
  B  B5  1  0.33140900  0.00000000  0.35116000  1
  B  B6  1  0.66859100  0.00000000  0.35116000  1
  B  B7  1  0.50000000  0.83140900  0.85116000  1
  B  B8  1  0.50000000  0.16859100  0.85116000  1
  B  B9  1  0.00000000  0.33140900  0.64884000  1
  Rh  Rh10  1  0.74858300  0.50000000  0.85439100  1
  Rh  Rh11  1  0.25141700  0.50000000  0.85439100  1
  Rh  Rh12  1  0.00000000  0.75141700  0.35439100  1
  Rh  Rh13  1  0.24858300  0.00000000  0.64560900  1
  Rh  Rh14  1  0.75141700  0.00000000  0.64560900  1
  Rh  Rh15  1  0.50000000  0.74858300  0.14560900  1
  Rh  Rh16  1  0.50000000  0.25141700  0.14560900  1
  Rh  Rh17  1  0.00000000  0.24858300  0.35439100  1
