# generated using pymatgen
data_MnH12S2(NO5)2
_symmetry_space_group_name_H-M   'P 1'
_cell_length_a   5.44113900
_cell_length_b   6.25248700
_cell_length_c   15.52282011
_cell_angle_alpha   87.56291691
_cell_angle_beta   90.00000000
_cell_angle_gamma   90.00000000
_symmetry_Int_Tables_number   1
_chemical_formula_structural   MnH12S2(NO5)2
_chemical_formula_sum   'Mn2 H24 S4 N4 O20'
_cell_volume   527.61878969
_cell_formula_units_Z   2
loop_
 _symmetry_equiv_pos_site_id
 _symmetry_equiv_pos_as_xyz
  1  'x, y, z'
loop_
 _atom_site_type_symbol
 _atom_site_label
 _atom_site_symmetry_multiplicity
 _atom_site_fract_x
 _atom_site_fract_y
 _atom_site_fract_z
 _atom_site_occupancy
  Mn  Mn0  1  0.50000000  0.00000000  0.50000000  1
  Mn  Mn1  1  0.00000000  0.00000000  0.00000000  1
  H  H2  1  0.39256000  0.86333400  0.78724500  1
  H  H3  1  0.78045500  0.79838700  0.62760300  1
  H  H4  1  0.10744000  0.86333400  0.28724500  1
  H  H5  1  0.71954500  0.79838700  0.12760300  1
  H  H6  1  0.93483300  0.78397000  0.54124100  1
  H  H7  1  0.56516700  0.78397000  0.04124100  1
  H  H8  1  0.30321200  0.68653300  0.93314300  1
  H  H9  1  0.19678800  0.68653300  0.43314300  1
  H  H10  1  0.41796000  0.59690000  0.78362400  1
  H  H11  1  0.28443700  0.60152000  0.52901400  1
  H  H12  1  0.08204000  0.59690000  0.28362400  1
  H  H13  1  0.21556300  0.60152000  0.02901400  1
  H  H14  1  0.78443700  0.39848000  0.97098600  1
  H  H15  1  0.91796000  0.40310000  0.71637600  1
  H  H16  1  0.71556300  0.39848000  0.47098600  1
  H  H17  1  0.58204000  0.40310000  0.21637600  1
  H  H18  1  0.80321200  0.31346700  0.56685700  1
  H  H19  1  0.69678800  0.31346700  0.06685700  1
  H  H20  1  0.43483300  0.21603000  0.95875900  1
  H  H21  1  0.06516700  0.21603000  0.45875900  1
  H  H22  1  0.28045500  0.20161300  0.87239700  1
  H  H23  1  0.89256000  0.13666600  0.71275500  1
  H  H24  1  0.21954500  0.20161300  0.37239700  1
  H  H25  1  0.60744000  0.13666600  0.21275500  1
  S  S26  1  0.76609500  0.74595600  0.82591300  1
  S  S27  1  0.73390500  0.74595600  0.32591300  1
  S  S28  1  0.26609500  0.25404400  0.67408700  1
  S  S29  1  0.23390500  0.25404400  0.17408700  1
  N  N30  1  0.45835600  0.72757700  0.81930200  1
  N  N31  1  0.04164400  0.72757700  0.31930200  1
  N  N32  1  0.95835600  0.27242300  0.68069800  1
  N  N33  1  0.54164400  0.27242300  0.18069800  1
  O  O34  1  0.80812700  0.93269700  0.87947500  1
  O  O35  1  0.69187300  0.93269700  0.37947500  1
  O  O36  1  0.86901600  0.78540300  0.73880600  1
  O  O37  1  0.76543900  0.79355600  0.56430500  1
  O  O38  1  0.63098400  0.78540300  0.23880600  1
  O  O39  1  0.73456100  0.79355600  0.06430500  1
  O  O40  1  0.26778000  0.72798900  0.99316000  1
  O  O41  1  0.23222000  0.72798900  0.49316000  1
  O  O42  1  0.84393700  0.54150500  0.86564800  1
  O  O43  1  0.65606300  0.54150500  0.36564800  1
  O  O44  1  0.34393700  0.45849500  0.63435200  1
  O  O45  1  0.15606300  0.45849500  0.13435200  1
  O  O46  1  0.76778000  0.27201100  0.50684000  1
  O  O47  1  0.73222000  0.27201100  0.00684000  1
  O  O48  1  0.26543900  0.20644400  0.93569500  1
  O  O49  1  0.36901600  0.21459700  0.76119400  1
  O  O50  1  0.23456100  0.20644400  0.43569500  1
  O  O51  1  0.13098400  0.21459700  0.26119400  1
  O  O52  1  0.30812700  0.06730300  0.62052500  1
  O  O53  1  0.19187300  0.06730300  0.12052500  1
