# generated using pymatgen
data_Li4Co3NiO8
_symmetry_space_group_name_H-M   'P 1'
_cell_length_a   5.77175117
_cell_length_b   5.77175117
_cell_length_c   5.77175139
_cell_angle_alpha   59.29588338
_cell_angle_beta   59.29588338
_cell_angle_gamma   59.29588940
_symmetry_Int_Tables_number   1
_chemical_formula_structural   Li4Co3NiO8
_chemical_formula_sum   'Li4 Co3 Ni1 O8'
_cell_volume   133.77910541
_cell_formula_units_Z   1
loop_
 _symmetry_equiv_pos_site_id
 _symmetry_equiv_pos_as_xyz
  1  'x, y, z'
loop_
 _atom_site_type_symbol
 _atom_site_label
 _atom_site_symmetry_multiplicity
 _atom_site_fract_x
 _atom_site_fract_y
 _atom_site_fract_z
 _atom_site_occupancy
  Li  Li0  1  0.50000000  0.00000000  0.00000000  1
  Li  Li1  1  0.00000000  0.50000000  0.00000000  1
  Li  Li2  1  0.50000000  0.50000000  0.50000000  1
  Li  Li3  1  0.00000000  0.00000000  0.50000000  1
  Co  Co4  1  0.50000000  0.50000000  0.00000000  1
  Co  Co5  1  0.50000000  0.00000000  0.50000000  1
  Co  Co6  1  0.00000000  0.50000000  0.50000000  1
  Ni  Ni7  1  0.00000000  0.00000000  0.00000000  1
  O  O8  1  0.73047600  0.24479700  0.24479700  1
  O  O9  1  0.75520300  0.75520300  0.26952400  1
  O  O10  1  0.26087600  0.26087600  0.26087600  1
  O  O11  1  0.75520300  0.26952400  0.75520300  1
  O  O12  1  0.24479700  0.73047600  0.24479700  1
  O  O13  1  0.73912400  0.73912400  0.73912400  1
  O  O14  1  0.24479700  0.24479700  0.73047600  1
  O  O15  1  0.26952400  0.75520300  0.75520300  1
