# generated using pymatgen
data_VB
_symmetry_space_group_name_H-M   'P 1'
_cell_length_a   4.29754956
_cell_length_b   4.29754956
_cell_length_c   2.96925800
_cell_angle_alpha   90.00000000
_cell_angle_beta   90.00000000
_cell_angle_gamma   138.39003864
_symmetry_Int_Tables_number   1
_chemical_formula_structural   VB
_chemical_formula_sum   'V2 B2'
_cell_volume   36.41619518
_cell_formula_units_Z   2
loop_
 _symmetry_equiv_pos_site_id
 _symmetry_equiv_pos_as_xyz
  1  'x, y, z'
loop_
 _atom_site_type_symbol
 _atom_site_label
 _atom_site_symmetry_multiplicity
 _atom_site_fract_x
 _atom_site_fract_y
 _atom_site_fract_z
 _atom_site_occupancy
  V  V0  1  0.14767500  0.85232500  0.25000000  1
  V  V1  1  0.85232500  0.14767500  0.75000000  1
  B  B2  1  0.43749700  0.56250300  0.25000000  1
  B  B3  1  0.56250300  0.43749700  0.75000000  1
