# generated using pymatgen
data_SmNi
_symmetry_space_group_name_H-M   'P 1'
_cell_length_a   5.54309865
_cell_length_b   5.54309865
_cell_length_c   4.30235400
_cell_angle_alpha   90.00000000
_cell_angle_beta   90.00000000
_cell_angle_gamma   140.37773538
_symmetry_Int_Tables_number   1
_chemical_formula_structural   SmNi
_chemical_formula_sum   'Sm2 Ni2'
_cell_volume   84.30312619
_cell_formula_units_Z   2
loop_
 _symmetry_equiv_pos_site_id
 _symmetry_equiv_pos_as_xyz
  1  'x, y, z'
loop_
 _atom_site_type_symbol
 _atom_site_label
 _atom_site_symmetry_multiplicity
 _atom_site_fract_x
 _atom_site_fract_y
 _atom_site_fract_z
 _atom_site_occupancy
  Sm  Sm0  1  0.86141300  0.13858700  0.75000000  1
  Sm  Sm1  1  0.13858700  0.86141300  0.25000000  1
  Ni  Ni2  1  0.57286200  0.42713800  0.75000000  1
  Ni  Ni3  1  0.42713800  0.57286200  0.25000000  1
