# generated using pymatgen
data_K2O2
_symmetry_space_group_name_H-M   'P 1'
_cell_length_a   7.14375002
_cell_length_b   7.14375002
_cell_length_c   5.12295900
_cell_angle_alpha   90.00000000
_cell_angle_beta   90.00000000
_cell_angle_gamma   120.00000017
_symmetry_Int_Tables_number   1
_chemical_formula_structural   K2O2
_chemical_formula_sum   'K6 O6'
_cell_volume   226.41438136
_cell_formula_units_Z   3
loop_
 _symmetry_equiv_pos_site_id
 _symmetry_equiv_pos_as_xyz
  1  'x, y, z'
loop_
 _atom_site_type_symbol
 _atom_site_label
 _atom_site_symmetry_multiplicity
 _atom_site_fract_x
 _atom_site_fract_y
 _atom_site_fract_z
 _atom_site_occupancy
  K  K0  1  0.00000000  0.70556800  0.50000000  1
  K  K1  1  0.29443200  0.29443200  0.50000000  1
  K  K2  1  0.70556800  0.00000000  0.50000000  1
  K  K3  1  0.00000000  0.36814900  0.00000000  1
  K  K4  1  0.63185100  0.63185100  0.00000000  1
  K  K5  1  0.36814900  0.00000000  0.00000000  1
  O  O6  1  0.66666700  0.33333300  0.34927100  1
  O  O7  1  0.66666700  0.33333300  0.65072900  1
  O  O8  1  0.33333300  0.66666700  0.65072900  1
  O  O9  1  0.33333300  0.66666700  0.34927100  1
  O  O10  1  0.00000000  0.00000000  0.85110700  1
  O  O11  1  0.00000000  0.00000000  0.14889300  1
