# generated using pymatgen
data_W3C
_symmetry_space_group_name_H-M   'P 1'
_cell_length_a   5.17494262
_cell_length_b   5.17494262
_cell_length_c   5.17494262
_cell_angle_alpha   140.13355078
_cell_angle_beta   140.13355078
_cell_angle_gamma   57.65057689
_symmetry_Int_Tables_number   1
_chemical_formula_structural   W3C
_chemical_formula_sum   'W3 C1'
_cell_volume   56.44745269
_cell_formula_units_Z   1
loop_
 _symmetry_equiv_pos_site_id
 _symmetry_equiv_pos_as_xyz
  1  'x, y, z'
loop_
 _atom_site_type_symbol
 _atom_site_label
 _atom_site_symmetry_multiplicity
 _atom_site_fract_x
 _atom_site_fract_y
 _atom_site_fract_z
 _atom_site_occupancy
  W  W0  1  0.75000000  0.25000000  0.50000000  1
  W  W1  1  0.25000000  0.75000000  0.50000000  1
  W  W2  1  0.50000000  0.50000000  0.00000000  1
  C  C3  1  0.00000000  0.00000000  0.00000000  1
