# generated using pymatgen
data_Lu3Al
_symmetry_space_group_name_H-M   'P 1'
_cell_length_a   6.65197223
_cell_length_b   6.65197223
_cell_length_c   5.26755500
_cell_angle_alpha   90.00000000
_cell_angle_beta   90.00000000
_cell_angle_gamma   120.00000226
_symmetry_Int_Tables_number   1
_chemical_formula_structural   Lu3Al
_chemical_formula_sum   'Lu6 Al2'
_cell_volume   201.85548519
_cell_formula_units_Z   2
loop_
 _symmetry_equiv_pos_site_id
 _symmetry_equiv_pos_as_xyz
  1  'x, y, z'
loop_
 _atom_site_type_symbol
 _atom_site_label
 _atom_site_symmetry_multiplicity
 _atom_site_fract_x
 _atom_site_fract_y
 _atom_site_fract_z
 _atom_site_occupancy
  Lu  Lu0  1  0.82806300  0.17193700  0.75000000  1
  Lu  Lu1  1  0.34387300  0.17193700  0.75000000  1
  Lu  Lu2  1  0.82806300  0.65612700  0.75000000  1
  Lu  Lu3  1  0.17193700  0.82806300  0.25000000  1
  Lu  Lu4  1  0.65612700  0.82806300  0.25000000  1
  Lu  Lu5  1  0.17193700  0.34387300  0.25000000  1
  Al  Al6  1  0.66666700  0.33333300  0.25000000  1
  Al  Al7  1  0.33333300  0.66666700  0.75000000  1
