# generated using pymatgen
data_BiF5
_symmetry_space_group_name_H-M   'P 1'
_cell_length_a   6.10243953
_cell_length_b   6.10243953
_cell_length_c   8.93096700
_cell_angle_alpha   90.00000000
_cell_angle_beta   90.00000000
_cell_angle_gamma   143.51562380
_symmetry_Int_Tables_number   1
_chemical_formula_structural   BiF5
_chemical_formula_sum   'Bi2 F10'
_cell_volume   197.75749950
_cell_formula_units_Z   2
loop_
 _symmetry_equiv_pos_site_id
 _symmetry_equiv_pos_as_xyz
  1  'x, y, z'
loop_
 _atom_site_type_symbol
 _atom_site_label
 _atom_site_symmetry_multiplicity
 _atom_site_fract_x
 _atom_site_fract_y
 _atom_site_fract_z
 _atom_site_occupancy
  Bi  Bi0  1  0.50000000  0.50000000  0.50000000  1
  Bi  Bi1  1  0.50000000  0.50000000  0.00000000  1
  F  F2  1  0.50809100  0.49190900  0.25000000  1
  F  F3  1  0.49190900  0.50809100  0.75000000  1
  F  F4  1  0.92678200  0.07321800  0.59202100  1
  F  F5  1  0.07321800  0.92678200  0.40797900  1
  F  F6  1  0.66714800  0.33285200  0.93583000  1
  F  F7  1  0.33285200  0.66714800  0.06417000  1
  F  F8  1  0.33285200  0.66714800  0.43583000  1
  F  F9  1  0.66714800  0.33285200  0.56417000  1
  F  F10  1  0.92678200  0.07321800  0.90797900  1
  F  F11  1  0.07321800  0.92678200  0.09202100  1
