# generated using pymatgen
data_Ag2O
_symmetry_space_group_name_H-M   Ibam
_cell_length_a   6.43030800
_cell_length_b   6.78034228
_cell_length_c   6.46548200
_cell_angle_alpha   118.47539951
_cell_angle_beta   90.00000000
_cell_angle_gamma   118.30646570
_symmetry_Int_Tables_number   72
_chemical_formula_structural   Ag2O
_chemical_formula_sum   'Ag8 O4'
_cell_volume   208.64380102
_cell_formula_units_Z   4
loop_
 _symmetry_equiv_pos_site_id
 _symmetry_equiv_pos_as_xyz
  1  'x, y, z'
  2  '-x, -y, -z'
  3  'x-y, -y, -z'
  4  '-x+y, y, z'
  5  '-x+1/2, -y, -y+z'
  6  'x+1/2, y, y-z'
  7  '-x+y+1/2, y, y-z'
  8  'x-y+1/2, -y, -y+z'
loop_
 _atom_site_type_symbol
 _atom_site_label
 _atom_site_symmetry_multiplicity
 _atom_site_fract_x
 _atom_site_fract_y
 _atom_site_fract_z
 _atom_site_occupancy
  Ag  Ag0  4  0.00000000  0.50000000  0.00000000  1.0
  Ag  Ag1  2  0.00000000  0.00000000  0.00000000  1.0
  Ag  Ag2  2  0.25000000  0.00000000  0.50000000  1.0
  O  O3  4  0.11210800  0.22421600  0.39040400  1.0
