# generated using pymatgen
data_Ag2S
_symmetry_space_group_name_H-M   P2_1/m
_cell_length_a   4.22303500
_cell_length_b   4.23862726
_cell_length_c   7.54948100
_cell_angle_alpha   90.00000000
_cell_angle_beta   90.00000000
_cell_angle_gamma   110.54997626
_symmetry_Int_Tables_number   11
_chemical_formula_structural   Ag2S
_chemical_formula_sum   'Ag4 S2'
_cell_volume   126.53562339
_cell_formula_units_Z   2
loop_
 _symmetry_equiv_pos_site_id
 _symmetry_equiv_pos_as_xyz
  1  'x, y, z'
  2  '-x, -y, -z'
  3  '-x, -y, z+1/2'
  4  'x, y, -z+1/2'
loop_
 _atom_site_type_symbol
 _atom_site_label
 _atom_site_symmetry_multiplicity
 _atom_site_fract_x
 _atom_site_fract_y
 _atom_site_fract_z
 _atom_site_occupancy
  Ag  Ag0  2  0.13057000  0.89189000  0.75000000  1.0
  Ag  Ag1  2  0.50000000  0.50000000  0.00000000  1.0
  S  S2  2  0.26357000  0.71019900  0.25000000  1.0
