# generated using pymatgen
data_Nb24Al2.4Ge5.6
_symmetry_space_group_name_H-M   P4_2/n
_cell_length_a   5.30627800
_cell_length_b   10.35914900
_cell_length_c   10.35914900
_cell_angle_alpha   90.00000000
_cell_angle_beta   90.00000000
_cell_angle_gamma   90.00000000
_symmetry_Int_Tables_number   86
_chemical_formula_structural   Nb24Al2.4Ge5.6
_chemical_formula_sum   'Nb24 Al2.4 Ge5.6'
_cell_volume   569.42713496
_cell_formula_units_Z   1
loop_
 _symmetry_equiv_pos_site_id
 _symmetry_equiv_pos_as_xyz
  1  'x, y, z'
  2  'x+1/2, -z+1/2, y+1/2'
  3  'x, -y, -z'
  4  'x+1/2, z+1/2, -y+1/2'
  5  '-x+1/2, -y+1/2, -z+1/2'
  6  '-x, z, -y'
  7  '-x+1/2, y+1/2, z+1/2'
  8  '-x, -z, y'
loop_
 _atom_site_type_symbol
 _atom_site_label
 _atom_site_symmetry_multiplicity
 _atom_site_fract_x
 _atom_site_fract_y
 _atom_site_fract_z
 _atom_site_occupancy
  Nb  Nb0  8  0.01420800  0.18609100  0.28588700  1.0
  Nb  Nb1  8  0.03585900  0.09727900  0.58328000  1.0
  Nb  Nb2  8  0.22078100  0.47837800  0.64882000  1.0
  Ge  Ge3  8  0.21724800  0.20366200  0.03264200  0.7
  Al  Al4  8  0.21724800  0.20366200  0.03264200  0.3
