# generated using pymatgen
data_YbAlB4
_symmetry_space_group_name_H-M   Pmmm
_cell_length_a   3.13733000
_cell_length_b   3.59932200
_cell_length_c   5.38614200
_cell_angle_alpha   90.00000000
_cell_angle_beta   90.00000000
_cell_angle_gamma   90.00000000
_symmetry_Int_Tables_number   47
_chemical_formula_structural   YbAlB4
_chemical_formula_sum   'Yb1 Al1 B4'
_cell_volume   60.82172066
_cell_formula_units_Z   1
loop_
 _symmetry_equiv_pos_site_id
 _symmetry_equiv_pos_as_xyz
  1  'x, y, z'
  2  '-x, -y, -z'
  3  '-x, -y, z'
  4  'x, y, -z'
  5  'x, -y, -z'
  6  '-x, y, z'
  7  '-x, y, -z'
  8  'x, -y, z'
loop_
 _atom_site_type_symbol
 _atom_site_label
 _atom_site_symmetry_multiplicity
 _atom_site_fract_x
 _atom_site_fract_y
 _atom_site_fract_z
 _atom_site_occupancy
  Yb  Yb0  1  0.00000000  0.00000000  0.00000000  1.0
  Al  Al1  1  0.50000000  0.00000000  0.50000000  1.0
  B  B2  2  0.00000000  0.50000000  0.34137400  1.0
  B  B3  2  0.50000000  0.50000000  0.18256700  1.0
