# generated using pymatgen
data_Al3Pt1.5
_symmetry_space_group_name_H-M   P-3m1
_cell_length_a   4.23871200
_cell_length_b   4.23871263
_cell_length_c   5.23689300
_cell_angle_alpha   90.00000000
_cell_angle_beta   90.00000000
_cell_angle_gamma   119.99999507
_symmetry_Int_Tables_number   164
_chemical_formula_structural   Al3Pt1.5
_chemical_formula_sum   'Al3 Pt1.5'
_cell_volume   81.48398066
_cell_formula_units_Z   1
loop_
 _symmetry_equiv_pos_site_id
 _symmetry_equiv_pos_as_xyz
  1  'x, y, z'
  2  '-x, -y, -z'
  3  '-y, x-y, z'
  4  'y, -x+y, -z'
  5  '-x+y, -x, z'
  6  'x-y, x, -z'
  7  'y, x, -z'
  8  '-y, -x, z'
  9  'x-y, -y, -z'
  10  '-x+y, y, z'
  11  '-x, -x+y, -z'
  12  'x, x-y, z'
loop_
 _atom_site_type_symbol
 _atom_site_label
 _atom_site_symmetry_multiplicity
 _atom_site_fract_x
 _atom_site_fract_y
 _atom_site_fract_z
 _atom_site_occupancy
  Al  Al0  2  0.33333333  0.66666667  0.64681900  1.0
  Al  Al1  1  0.00000000  0.00000000  0.00000000  1.0
  Pt  Pt2  2  0.33333333  0.66666667  0.16690300  0.75
