# generated using pymatgen
data_As
_symmetry_space_group_name_H-M   Cmce
_cell_length_a   3.70652000
_cell_length_b   4.68642700
_cell_length_c   6.01330785
_cell_angle_alpha   90.00000000
_cell_angle_beta   107.95037212
_cell_angle_gamma   90.00000000
_symmetry_Int_Tables_number   64
_chemical_formula_structural   As
_chemical_formula_sum   As4
_cell_volume   99.36879281
_cell_formula_units_Z   4
loop_
 _symmetry_equiv_pos_site_id
 _symmetry_equiv_pos_as_xyz
  1  'x, y, z'
  2  '-x, -y, -z'
  3  '-x+1/2, y+1/2, -z'
  4  'x+1/2, -y+1/2, z'
  5  'x-z, -y, -z'
  6  '-x+z, y, z'
  7  '-x+z+1/2, -y+1/2, z'
  8  'x-z+1/2, y+1/2, -z'
loop_
 _atom_site_type_symbol
 _atom_site_label
 _atom_site_symmetry_multiplicity
 _atom_site_fract_x
 _atom_site_fract_y
 _atom_site_fract_z
 _atom_site_occupancy
  As  As0  4  0.10592800  0.06863000  0.21185600  1.0
