# generated using pymatgen
data_Ce2Fe2As2O1.4
_symmetry_space_group_name_H-M   P4mm
_cell_length_a   3.99225600
_cell_length_b   3.99225600
_cell_length_c   9.04197100
_cell_angle_alpha   90.00000000
_cell_angle_beta   90.00000000
_cell_angle_gamma   90.00000000
_symmetry_Int_Tables_number   99
_chemical_formula_structural   Ce2Fe2As2O1.4
_chemical_formula_sum   'Ce2 Fe2 As2 O1.4'
_cell_volume   144.11191006
_cell_formula_units_Z   1
loop_
 _symmetry_equiv_pos_site_id
 _symmetry_equiv_pos_as_xyz
  1  'x, y, z'
  2  '-y, x, z'
  3  '-x, -y, z'
  4  'y, -x, z'
  5  '-x, y, z'
  6  'y, x, z'
  7  'x, -y, z'
  8  '-y, -x, z'
loop_
 _atom_site_type_symbol
 _atom_site_label
 _atom_site_symmetry_multiplicity
 _atom_site_fract_x
 _atom_site_fract_y
 _atom_site_fract_z
 _atom_site_occupancy
  Ce  Ce0  1  0.00000000  0.00000000  0.13217000  1.0
  Ce  Ce1  1  0.50000000  0.50000000  0.85806600  1.0
  Fe  Fe2  2  0.00000000  0.50000000  0.50231100  1.0
  As  As3  1  0.00000000  0.00000000  0.68877500  1.0
  As  As4  1  0.50000000  0.50000000  0.31544100  1.0
  O  O5  2  0.00000000  0.50000000  0.99655100  0.7
