# generated using pymatgen
data_BaGdCuBO5
_symmetry_space_group_name_H-M   P4bm
_cell_length_a   5.51276100
_cell_length_b   5.51276100
_cell_length_c   7.54152100
_cell_angle_alpha   90.00000000
_cell_angle_beta   90.00000000
_cell_angle_gamma   90.00000000
_symmetry_Int_Tables_number   100
_chemical_formula_structural   BaGdCuBO5
_chemical_formula_sum   'Ba2 Gd2 Cu2 B2 O10'
_cell_volume   229.19084918
_cell_formula_units_Z   2
loop_
 _symmetry_equiv_pos_site_id
 _symmetry_equiv_pos_as_xyz
  1  'x, y, z'
  2  '-y, x, z'
  3  '-x, -y, z'
  4  'y, -x, z'
  5  '-x+1/2, y+1/2, z'
  6  'y+1/2, x+1/2, z'
  7  'x+1/2, -y+1/2, z'
  8  '-y+1/2, -x+1/2, z'
loop_
 _atom_site_type_symbol
 _atom_site_label
 _atom_site_symmetry_multiplicity
 _atom_site_fract_x
 _atom_site_fract_y
 _atom_site_fract_z
 _atom_site_occupancy
  Ba  Ba0  2  0.00000000  0.00000000  0.01083500  1.0
  Gd  Gd1  2  0.00000000  0.00000000  0.51472000  1.0
  Cu  Cu2  2  0.00000000  0.50000000  0.73285000  1.0
  B  B3  2  0.00000000  0.50000000  0.25226800  1.0
  O  O4  4  0.15747600  0.65747600  0.34000500  1.0
  O  O5  4  0.24734300  0.25265700  0.71266200  1.0
  O  O6  2  0.00000000  0.50000000  0.06699300  1.0
