# generated using pymatgen
data_BN
_symmetry_space_group_name_H-M   P1
_cell_length_a   10.37811437
_cell_length_b   10.42218540
_cell_length_c   10.60926534
_cell_angle_alpha   93.63878104
_cell_angle_beta   97.32584495
_cell_angle_gamma   91.03481494
_symmetry_Int_Tables_number   1
_chemical_formula_structural   BN
_chemical_formula_sum   'B50 N50'
_cell_volume   1135.46777961
_cell_formula_units_Z   50
loop_
 _symmetry_equiv_pos_site_id
 _symmetry_equiv_pos_as_xyz
  1  'x, y, z'
loop_
 _atom_site_type_symbol
 _atom_site_label
 _atom_site_symmetry_multiplicity
 _atom_site_fract_x
 _atom_site_fract_y
 _atom_site_fract_z
 _atom_site_occupancy
  B  B0  1  0.03093600  0.38455800  0.56281400  1.0
  B  B1  1  0.04007600  0.29610400  0.14629800  1.0
  B  B2  1  0.05820200  0.71636700  0.90095600  1.0
  B  B3  1  0.08877500  0.48002400  0.90012300  1.0
  B  B4  1  0.10766900  0.08244000  0.71755000  1.0
  B  B5  1  0.13219300  0.24919300  0.92327800  1.0
  B  B6  1  0.14292400  0.98554800  0.51266000  1.0
  B  B7  1  0.15592900  0.89135800  0.29674300  1.0
  B  B8  1  0.16244200  0.25554800  0.31984700  1.0
  B  B9  1  0.24146300  0.64221300  0.80010000  1.0
  B  B10  1  0.24230600  0.24402300  0.57297900  1.0
  B  B11  1  0.24309600  0.68970000  0.19724400  1.0
  B  B12  1  0.26853800  0.44759700  0.24823400  1.0
  B  B13  1  0.30551100  0.13782500  0.78304800  1.0
  B  B14  1  0.31881500  0.82317500  0.66549000  1.0
  B  B15  1  0.31969000  0.42440600  0.88315300  1.0
  B  B16  1  0.35350000  0.90974700  0.44620000  1.0
  B  B17  1  0.35895200  0.90109100  0.21053000  1.0
  B  B18  1  0.37549100  0.00586700  0.98753800  1.0
  B  B19  1  0.38252000  0.28869900  0.40209900  1.0
  B  B20  1  0.45525900  0.49055900  0.79425700  1.0
  B  B21  1  0.45694300  0.51059700  0.42952900  1.0
  B  B22  1  0.49165400  0.76503600  0.57780400  1.0
  B  B23  1  0.51363200  0.66427900  0.45028400  1.0
  B  B24  1  0.53799400  0.06949000  0.85585700  1.0
  B  B25  1  0.54531300  0.50678300  0.67512000  1.0
  B  B26  1  0.57609600  0.89840800  0.37906200  1.0
  B  B27  1  0.57966500  0.12992000  0.41716900  1.0
  B  B28  1  0.58582800  0.32571500  0.88989500  1.0
  B  B29  1  0.60494400  0.82346900  0.82061600  1.0
  B  B30  1  0.63885200  0.74662500  0.41535100  1.0
  B  B31  1  0.64354500  0.64019700  0.70890300  1.0
  B  B32  1  0.72975700  0.65699300  0.97534100  1.0
  B  B33  1  0.74225700  0.21480300  0.88933900  1.0
  B  B34  1  0.76219700  0.99428900  0.82309700  1.0
  B  B35  1  0.78027700  0.98579600  0.36550700  1.0
  B  B36  1  0.79974300  0.81605000  0.34912400  1.0
  B  B37  1  0.81109100  0.62724300  0.18493100  1.0
  B  B38  1  0.81689300  0.57918300  0.41409700  1.0
  B  B39  1  0.81724100  0.78560100  0.70323300  1.0
  B  B40  1  0.82083700  0.52914800  0.66002800  1.0
  B  B41  1  0.84461700  0.40825000  0.82749700  1.0
  B  B42  1  0.86251800  0.41148100  0.25504600  1.0
  B  B43  1  0.86692200  0.44572000  0.02521100  1.0
  B  B44  1  0.89750500  0.42954600  0.47502200  1.0
  B  B45  1  0.91342100  0.20712000  0.33164300  1.0
  B  B46  1  0.93366600  0.83229100  0.18451500  1.0
  B  B47  1  0.94491700  0.12085500  0.98769900  1.0
  B  B48  1  0.96802600  0.89193400  0.04526200  1.0
  B  B49  1  0.97166900  0.04926100  0.23070500  1.0
  N  N50  1  0.00758500  0.81794800  0.94637500  1.0
  N  N51  1  0.02248500  0.91486400  0.26888200  1.0
  N  N52  1  0.03251600  0.18857900  0.26522400  1.0
  N  N53  1  0.04523900  0.22293000  0.01317100  1.0
  N  N54  1  0.07574000  0.01271500  0.60638700  1.0
  N  N55  1  0.10536900  0.63550400  0.50418900  1.0
  N  N56  1  0.12125500  0.61018300  0.85818500  1.0
  N  N57  1  0.13451700  0.32547200  0.59650000  1.0
  N  N58  1  0.16119700  0.14455800  0.82685200  1.0
  N  N59  1  0.17110600  0.34492200  0.22403600  1.0
  N  N60  1  0.18932100  0.64512400  0.44987400  1.0
  N  N61  1  0.19139300  0.38106800  0.91309200  1.0
  N  N62  1  0.21746800  0.94602200  0.41924400  1.0
  N  N63  1  0.23374700  0.82248400  0.21063600  1.0
  N  N64  1  0.25549900  0.56771000  0.19086100  1.0
  N  N65  1  0.25651000  0.23779700  0.43041300  1.0
  N  N66  1  0.26233900  0.75996600  0.74400600  1.0
  N  N67  1  0.32521100  0.18152700  0.66747100  1.0
  N  N68  1  0.33155800  0.54190600  0.81598600  1.0
  N  N69  1  0.37789900  0.95627500  0.09688300  1.0
  N  N70  1  0.37878700  0.41877900  0.34590600  1.0
  N  N71  1  0.39166900  0.86441100  0.57151000  1.0
  N  N72  1  0.39663200  0.06336400  0.87525200  1.0
  N  N73  1  0.43279600  0.90671000  0.34244300  1.0
  N  N74  1  0.46853900  0.39644600  0.88938200  1.0
  N  N75  1  0.46974200  0.24759500  0.14497300  1.0
  N  N76  1  0.49798200  0.21840000  0.42408700  1.0
  N  N77  1  0.52055700  0.47866700  0.54971200  1.0
  N  N78  1  0.56282200  0.75308700  0.69895200  1.0
  N  N79  1  0.56712600  0.29568700  0.14693900  1.0
  N  N80  1  0.60358600  0.19234600  0.86680200  1.0
  N  N81  1  0.62289700  0.96483800  0.83789300  1.0
  N  N82  1  0.63467400  0.91803500  0.12579800  1.0
  N  N83  1  0.65333000  0.01702600  0.40692700  1.0
  N  N84  1  0.65747000  0.73463300  0.90938200  1.0
  N  N85  1  0.67200700  0.01197800  0.09931200  1.0
  N  N86  1  0.74387800  0.35998900  0.90994100  1.0
  N  N87  1  0.77494300  0.71552100  0.43611700  1.0
  N  N88  1  0.78121000  0.65465600  0.68652900  1.0
  N  N89  1  0.80177300  0.57743900  0.05396900  1.0
  N  N90  1  0.81163200  0.53881100  0.28257100  1.0
  N  N91  1  0.82002000  0.90397100  0.74363500  1.0
  N  N92  1  0.82703000  0.40997000  0.69185000  1.0
  N  N93  1  0.83295400  0.11361800  0.88520900  1.0
  N  N94  1  0.83390300  0.76145700  0.22547000  1.0
  N  N95  1  0.85932200  0.07900200  0.31413300  1.0
  N  N96  1  0.86971200  0.33496400  0.36722900  1.0
  N  N97  1  0.91699000  0.37919600  0.14103400  1.0
  N  N98  1  0.94896200  0.02348900  0.08129400  1.0
  N  N99  1  0.95207800  0.45299700  0.91716200  1.0
