# generated using pymatgen
data_BN
_symmetry_space_group_name_H-M   Fmm2
_cell_length_a   2.51070600
_cell_length_b   2.51264253
_cell_length_c   3.71713314
_cell_angle_alpha   80.28599966
_cell_angle_beta   70.26192932
_cell_angle_gamma   60.02549172
_symmetry_Int_Tables_number   42
_chemical_formula_structural   BN
_chemical_formula_sum   'B1 N1'
_cell_volume   19.11965809
_cell_formula_units_Z   1
loop_
 _symmetry_equiv_pos_site_id
 _symmetry_equiv_pos_as_xyz
  1  'x, y, z'
  2  '-x-y, y, -z'
  3  '-x-y-z, y, z'
  4  'x+z, y, -z'
loop_
 _atom_site_type_symbol
 _atom_site_label
 _atom_site_symmetry_multiplicity
 _atom_site_fract_x
 _atom_site_fract_y
 _atom_site_fract_z
 _atom_site_occupancy
  B  B0  1  0.00017500  0.99965000  0.00000000  1.0
  N  N1  1  0.66652500  0.66695000  0.00000000  1.0
