# generated using pymatgen
data_BaGa2
_symmetry_space_group_name_H-M   P6mm
_cell_length_a   4.47347724
_cell_length_b   4.47347680
_cell_length_c   5.11251884
_cell_angle_alpha   90.00022612
_cell_angle_beta   90.00022602
_cell_angle_gamma   119.99338317
_symmetry_Int_Tables_number   183
_chemical_formula_structural   BaGa2
_chemical_formula_sum   'Ba1 Ga2'
_cell_volume   88.61044703
_cell_formula_units_Z   1
loop_
 _symmetry_equiv_pos_site_id
 _symmetry_equiv_pos_as_xyz
  1  'x, y, z'
  2  'x-y, x, z'
  3  '-y, x-y, z'
  4  '-x, -y, z'
  5  '-x+y, -x, z'
  6  'y, -x+y, z'
  7  'y, x, z'
  8  'x, x-y, z'
  9  'x-y, -y, z'
  10  '-y, -x, z'
  11  '-x, -x+y, z'
  12  '-x+y, y, z'
loop_
 _atom_site_type_symbol
 _atom_site_label
 _atom_site_symmetry_multiplicity
 _atom_site_fract_x
 _atom_site_fract_y
 _atom_site_fract_z
 _atom_site_occupancy
  Ba  Ba0  1  0.99999953  0.99999953  0.99678612  1.0
  Ga  Ga1  2  0.33337104  0.66666667  0.48760694  1.0
