# generated using pymatgen
data_BaTiO3
_symmetry_space_group_name_H-M   P4mm
_cell_length_a   4.00445700
_cell_length_b   4.00445700
_cell_length_c   4.20063600
_cell_angle_alpha   90.00000000
_cell_angle_beta   90.00000000
_cell_angle_gamma   90.00000000
_symmetry_Int_Tables_number   99
_chemical_formula_structural   BaTiO3
_chemical_formula_sum   'Ba1 Ti1 O3'
_cell_volume   67.36003732
_cell_formula_units_Z   1
loop_
 _symmetry_equiv_pos_site_id
 _symmetry_equiv_pos_as_xyz
  1  'x, y, z'
  2  '-y, x, z'
  3  '-x, -y, z'
  4  'y, -x, z'
  5  '-x, y, z'
  6  'y, x, z'
  7  'x, -y, z'
  8  '-y, -x, z'
loop_
 _atom_site_type_symbol
 _atom_site_label
 _atom_site_symmetry_multiplicity
 _atom_site_fract_x
 _atom_site_fract_y
 _atom_site_fract_z
 _atom_site_occupancy
  Ba  Ba0  1  0.50000000  0.50000000  0.00413600  1.0
  Ti  Ti1  1  0.00000000  0.00000000  0.52431300  1.0
  O  O2  2  0.00000000  0.50000000  0.47934900  1.0
  O  O3  1  0.00000000  0.00000000  0.95885400  1.0
