# generated using pymatgen
data_Li2BeH4
_symmetry_space_group_name_H-M   P1
_cell_length_a   4.85787600
_cell_length_b   6.75953043
_cell_length_c   12.46281209
_cell_angle_alpha   81.49984076
_cell_angle_beta   84.62942978
_cell_angle_gamma   86.07017375
_symmetry_Int_Tables_number   1
_chemical_formula_structural   Li2BeH4
_chemical_formula_sum   'Li12 Be6 H24'
_cell_volume   402.34653117
_cell_formula_units_Z   6
loop_
 _symmetry_equiv_pos_site_id
 _symmetry_equiv_pos_as_xyz
  1  'x, y, z'
loop_
 _atom_site_type_symbol
 _atom_site_label
 _atom_site_symmetry_multiplicity
 _atom_site_fract_x
 _atom_site_fract_y
 _atom_site_fract_z
 _atom_site_occupancy
  Li  Li0  1  0.01734100  0.48691200  0.59337700  1.0
  Li  Li1  1  0.09050700  0.77182400  0.19599600  1.0
  Li  Li2  1  0.10910600  0.27045300  0.13057000  1.0
  Li  Li3  1  0.11103600  0.25772000  0.83711300  1.0
  Li  Li4  1  0.11505800  0.67213200  0.79558500  1.0
  Li  Li5  1  0.32818200  0.02893800  0.65166200  1.0
  Li  Li6  1  0.54477400  0.97821000  0.84093200  1.0
  Li  Li7  1  0.61413200  0.26499200  0.34209000  1.0
  Li  Li8  1  0.61673900  0.53718900  0.83853400  1.0
  Li  Li9  1  0.62781200  0.56922000  0.15282500  1.0
  Li  Li10  1  0.63881100  0.99666200  0.18052100  1.0
  Li  Li11  1  0.65402100  0.73304800  0.37233500  1.0
  Be  Be12  1  0.01000600  0.95798600  0.97654600  1.0
  Be  Be13  1  0.02458700  0.59831100  0.98281800  1.0
  Be  Be14  1  0.09187300  0.22252000  0.46020400  1.0
  Be  Be15  1  0.13607900  0.39487300  0.31993900  1.0
  Be  Be16  1  0.14006800  0.77375200  0.42023600  1.0
  Be  Be17  1  0.14701900  0.06161900  0.31963900  1.0
  H  H18  1  0.05120500  0.00259300  0.43328700  1.0
  H  H19  1  0.06920300  0.20082200  0.57488900  1.0
  H  H20  1  0.24153100  0.49554500  0.91645500  1.0
  H  H21  1  0.27267400  0.02790600  0.93662600  1.0
  H  H22  1  0.30240200  0.38100600  0.41652700  1.0
  H  H23  1  0.37234600  0.75539400  0.06073400  1.0
  H  H24  1  0.37328900  0.74511200  0.47978400  1.0
  H  H25  1  0.41054200  0.19233300  0.74502000  1.0
  H  H26  1  0.43418600  0.79034300  0.74887000  1.0
  H  H27  1  0.45259600  0.17612100  0.04101400  1.0
  H  H28  1  0.48841200  0.81260200  0.08537900  1.0
  H  H29  1  0.49161700  0.52717800  0.58071700  1.0
  H  H30  1  0.49334700  0.43434700  0.62381600  1.0
  H  H31  1  0.50829200  0.25016100  0.07367900  1.0
  H  H32  1  0.57398900  0.06947700  0.52442900  1.0
  H  H33  1  0.66165800  0.98504500  0.55434700  1.0
  H  H34  1  0.72736600  0.74021200  0.23094700  1.0
  H  H35  1  0.82682900  0.07833200  0.90289800  1.0
  H  H36  1  0.84109500  0.70448700  0.90584900  1.0
  H  H37  1  0.87170400  0.45511300  0.05534800  1.0
  H  H38  1  0.88848600  0.37505900  0.41166100  1.0
  H  H39  1  0.90543400  0.69370900  0.48520000  1.0
  H  H40  1  0.93645800  0.48279700  0.74365700  1.0
  H  H41  1  0.96819000  0.00794600  0.08794700  1.0
