# generated using pymatgen
data_CuBr2
_symmetry_space_group_name_H-M   C2/m
_cell_length_a   3.49255800
_cell_length_b   4.22377869
_cell_length_c   6.45183429
_cell_angle_alpha   79.84063297
_cell_angle_beta   74.29622000
_cell_angle_gamma   65.57888669
_symmetry_Int_Tables_number   12
_chemical_formula_structural   CuBr2
_chemical_formula_sum   'Cu1 Br2'
_cell_volume   83.20007690
_cell_formula_units_Z   1
loop_
 _symmetry_equiv_pos_site_id
 _symmetry_equiv_pos_as_xyz
  1  'x, y, z'
  2  '-x, -y, -z'
  3  'x+y+z, -y, -z'
  4  '-x-y-z, y, z'
loop_
 _atom_site_type_symbol
 _atom_site_label
 _atom_site_symmetry_multiplicity
 _atom_site_fract_x
 _atom_site_fract_y
 _atom_site_fract_z
 _atom_site_occupancy
  Cu  Cu0  1  0.00000000  0.00000000  0.00000000  1.0
  Br  Br1  2  0.49062600  0.77674900  0.24199900  1.0
