# generated using pymatgen
data_C
_symmetry_space_group_name_H-M   Cmme
_cell_length_a   3.54923433
_cell_length_b   3.54923433
_cell_length_c   5.43134400
_cell_angle_alpha   90.00000000
_cell_angle_beta   90.00000000
_cell_angle_gamma   92.25091631
_symmetry_Int_Tables_number   67
_chemical_formula_structural   C
_chemical_formula_sum   C8
_cell_volume   68.36619823
_cell_formula_units_Z   8
loop_
 _symmetry_equiv_pos_site_id
 _symmetry_equiv_pos_as_xyz
  1  'x, y, z'
  2  '-x, -y, -z'
  3  '-x+1/2, -y+1/2, z'
  4  'x+1/2, y+1/2, -z'
  5  'y, x, -z'
  6  '-y, -x, z'
  7  '-y+1/2, -x+1/2, -z'
  8  'y+1/2, x+1/2, z'
loop_
 _atom_site_type_symbol
 _atom_site_label
 _atom_site_symmetry_multiplicity
 _atom_site_fract_x
 _atom_site_fract_y
 _atom_site_fract_z
 _atom_site_occupancy
  C  C0  4  0.10821800  0.60821800  0.23663600  1.0
  C  C1  4  0.25000000  0.25000000  0.13066100  1.0
