# generated using pymatgen
data_SiC
_symmetry_space_group_name_H-M   P6_3mc
_cell_length_a   3.09567400
_cell_length_b   3.09567458
_cell_length_c   20.24825100
_cell_angle_alpha   90.00000000
_cell_angle_beta   90.00000000
_cell_angle_gamma   119.99999376
_symmetry_Int_Tables_number   186
_chemical_formula_structural   SiC
_chemical_formula_sum   'Si8 C8'
_cell_volume   168.04619965
_cell_formula_units_Z   8
loop_
 _symmetry_equiv_pos_site_id
 _symmetry_equiv_pos_as_xyz
  1  'x, y, z'
  2  'x-y, x, z+1/2'
  3  '-y, x-y, z'
  4  '-x, -y, z+1/2'
  5  '-x+y, -x, z'
  6  'y, -x+y, z+1/2'
  7  'y, x, z+1/2'
  8  'x, x-y, z'
  9  'x-y, -y, z+1/2'
  10  '-y, -x, z'
  11  '-x, -x+y, z+1/2'
  12  '-x+y, y, z'
loop_
 _atom_site_type_symbol
 _atom_site_label
 _atom_site_symmetry_multiplicity
 _atom_site_fract_x
 _atom_site_fract_y
 _atom_site_fract_z
 _atom_site_occupancy
  Si  Si0  2  0.00000000  0.00000000  0.49990300  1.0
  Si  Si1  2  0.33333333  0.66666667  0.24989600  1.0
  Si  Si2  2  0.33333333  0.66666667  0.62487200  1.0
  Si  Si3  2  0.33333333  0.66666667  0.87495000  1.0
  C  C4  2  0.00000000  0.00000000  0.40608000  1.0
  C  C5  2  0.33333333  0.66666667  0.15591900  1.0
  C  C6  2  0.33333333  0.66666667  0.53111200  1.0
  C  C7  2  0.33333333  0.66666667  0.78126600  1.0
