# generated using pymatgen
data_SiC
_symmetry_space_group_name_H-M   P3m1
_cell_length_a   3.09446000
_cell_length_b   3.09446003
_cell_length_c   12.66203500
_cell_angle_alpha   90.00000000
_cell_angle_beta   90.00000000
_cell_angle_gamma   119.99999973
_symmetry_Int_Tables_number   156
_chemical_formula_structural   SiC
_chemical_formula_sum   'Si5 C5'
_cell_volume   105.00352850
_cell_formula_units_Z   5
loop_
 _symmetry_equiv_pos_site_id
 _symmetry_equiv_pos_as_xyz
  1  'x, y, z'
  2  '-y, x-y, z'
  3  '-x+y, -x, z'
  4  '-y, -x, z'
  5  '-x+y, y, z'
  6  'x, x-y, z'
loop_
 _atom_site_type_symbol
 _atom_site_label
 _atom_site_symmetry_multiplicity
 _atom_site_fract_x
 _atom_site_fract_y
 _atom_site_fract_z
 _atom_site_occupancy
  Si  Si0  1  0.00000000  0.00000000  0.19996700  1.0
  Si  Si1  1  0.00000000  0.00000000  0.60024100  1.0
  Si  Si2  1  0.33333333  0.66666667  0.80009100  1.0
  Si  Si3  1  0.66666667  0.33333333  0.40018200  1.0
  Si  Si4  1  0.66666667  0.33333333  0.99994900  1.0
  C  C5  1  0.00000000  0.00000000  0.04962000  1.0
  C  C6  1  0.00000000  0.00000000  0.45019500  1.0
  C  C7  1  0.33333333  0.66666667  0.65000200  1.0
  C  C8  1  0.66666667  0.33333333  0.24987700  1.0
  C  C9  1  0.66666667  0.33333333  0.84987600  1.0
