# generated using pymatgen
data_MgCd3
_symmetry_space_group_name_H-M   Pmm2
_cell_length_a   3.17650000
_cell_length_b   5.22036100
_cell_length_c   5.35447500
_cell_angle_alpha   90.00000000
_cell_angle_beta   90.00000000
_cell_angle_gamma   90.00000000
_symmetry_Int_Tables_number   25
_chemical_formula_structural   MgCd3
_chemical_formula_sum   'Mg1 Cd3'
_cell_volume   88.79045702
_cell_formula_units_Z   1
loop_
 _symmetry_equiv_pos_site_id
 _symmetry_equiv_pos_as_xyz
  1  'x, y, z'
  2  '-x, -y, z'
  3  '-x, y, z'
  4  'x, -y, z'
loop_
 _atom_site_type_symbol
 _atom_site_label
 _atom_site_symmetry_multiplicity
 _atom_site_fract_x
 _atom_site_fract_y
 _atom_site_fract_z
 _atom_site_occupancy
  Mg  Mg0  1  0.00000000  0.50000000  0.33581700  1.0
  Cd  Cd1  1  0.00000000  0.00000000  0.00232700  1.0
  Cd  Cd2  1  0.50000000  0.00000000  0.49797000  1.0
  Cd  Cd3  1  0.50000000  0.50000000  0.83055200  1.0
