# generated using pymatgen
data_MgCd
_symmetry_space_group_name_H-M   C2/m
_cell_length_a   3.21550600
_cell_length_b   5.30769255
_cell_length_c   5.94058303
_cell_angle_alpha   114.73427516
_cell_angle_beta   105.70229008
_cell_angle_gamma   90.00000000
_symmetry_Int_Tables_number   12
_chemical_formula_structural   MgCd
_chemical_formula_sum   'Mg2 Cd2'
_cell_volume   87.90280674
_cell_formula_units_Z   2
loop_
 _symmetry_equiv_pos_site_id
 _symmetry_equiv_pos_as_xyz
  1  'x, y, z'
  2  '-x, -y, -z'
  3  'x-z, -y, -z'
  4  '-x+z, y, z'
loop_
 _atom_site_type_symbol
 _atom_site_label
 _atom_site_symmetry_multiplicity
 _atom_site_fract_x
 _atom_site_fract_y
 _atom_site_fract_z
 _atom_site_occupancy
  Mg  Mg0  2  0.12400200  0.79304100  0.24800400  1.0
  Cd  Cd1  2  0.37555500  0.71143200  0.75111000  1.0
