# generated using pymatgen
data_TiNCl
_symmetry_space_group_name_H-M   Pmmn
_cell_length_a   3.27536000
_cell_length_b   3.96668800
_cell_length_c   8.40248700
_cell_angle_alpha   90.00000000
_cell_angle_beta   90.00000000
_cell_angle_gamma   90.00000000
_symmetry_Int_Tables_number   59
_chemical_formula_structural   TiNCl
_chemical_formula_sum   'Ti2 N2 Cl2'
_cell_volume   109.16789407
_cell_formula_units_Z   2
loop_
 _symmetry_equiv_pos_site_id
 _symmetry_equiv_pos_as_xyz
  1  'x, y, z'
  2  '-x, -y, z'
  3  'x+1/2, -y+1/2, -z'
  4  '-x+1/2, y+1/2, -z'
  5  '-x+1/2, -y+1/2, -z'
  6  'x+1/2, y+1/2, -z'
  7  '-x, y, z'
  8  'x, -y, z'
loop_
 _atom_site_type_symbol
 _atom_site_label
 _atom_site_symmetry_multiplicity
 _atom_site_fract_x
 _atom_site_fract_y
 _atom_site_fract_z
 _atom_site_occupancy
  Ti  Ti0  2  0.00000000  0.50000000  0.90825300  1.0
  N  N1  2  0.00000000  0.00000000  0.95461100  1.0
  Cl  Cl2  2  0.00000000  0.00000000  0.31090000  1.0
