# generated using pymatgen
data_Na0.7Co2O4
_symmetry_space_group_name_H-M   Amm2
_cell_length_a   2.93163400
_cell_length_b   3.03996933
_cell_length_c   10.81492100
_cell_angle_alpha   90.00000000
_cell_angle_beta   90.00000000
_cell_angle_gamma   118.82797704
_symmetry_Int_Tables_number   38
_chemical_formula_structural   Na0.7Co2O4
_chemical_formula_sum   'Na0.7 Co2 O4'
_cell_volume   84.43874619
_cell_formula_units_Z   1
loop_
 _symmetry_equiv_pos_site_id
 _symmetry_equiv_pos_as_xyz
  1  'x, y, z'
  2  '-x+y, y, -z'
  3  'x, y, -z'
  4  '-x+y, y, z'
loop_
 _atom_site_type_symbol
 _atom_site_label
 _atom_site_symmetry_multiplicity
 _atom_site_fract_x
 _atom_site_fract_y
 _atom_site_fract_z
 _atom_site_occupancy
  Na  Na0  1  0.66923800  0.33847600  0.00000000  0.7
  Co  Co1  2  0.00246500  0.00493000  0.25540600  1.0
  O  O2  2  0.34719700  0.69439400  0.15018700  1.0
  O  O3  2  0.64907000  0.29814000  0.33588500  1.0
