# generated using pymatgen
data_Cr3Ru
_symmetry_space_group_name_H-M   Cmmm
_cell_length_a   2.57230905
_cell_length_b   2.57230905
_cell_length_c   8.08841700
_cell_angle_alpha   90.00000000
_cell_angle_beta   90.00000000
_cell_angle_gamma   111.80730339
_symmetry_Int_Tables_number   65
_chemical_formula_structural   Cr3Ru
_chemical_formula_sum   'Cr3 Ru1'
_cell_volume   49.68930901
_cell_formula_units_Z   1
loop_
 _symmetry_equiv_pos_site_id
 _symmetry_equiv_pos_as_xyz
  1  'x, y, z'
  2  '-x, -y, -z'
  3  '-x, -y, z'
  4  'x, y, -z'
  5  'y, x, -z'
  6  '-y, -x, z'
  7  '-y, -x, -z'
  8  'y, x, z'
loop_
 _atom_site_type_symbol
 _atom_site_label
 _atom_site_symmetry_multiplicity
 _atom_site_fract_x
 _atom_site_fract_y
 _atom_site_fract_z
 _atom_site_occupancy
  Cr  Cr0  2  0.50000000  0.50000000  0.26206100  1.0
  Cr  Cr1  1  0.00000000  0.00000000  0.50000000  1.0
  Ru  Ru2  1  0.00000000  0.00000000  0.00000000  1.0
