# generated using pymatgen
data_Sr4Y2Cu0.1Ru1.9O12
_symmetry_space_group_name_H-M   P2_1/c
_cell_length_a   5.81665800
_cell_length_b   5.88539400
_cell_length_c   8.25486179
_cell_angle_alpha   90.00000000
_cell_angle_beta   89.60437521
_cell_angle_gamma   90.00000000
_symmetry_Int_Tables_number   14
_chemical_formula_structural   Sr4Y2Cu0.1Ru1.9O12
_chemical_formula_sum   'Sr4 Y2 Cu0.1 Ru1.9 O12'
_cell_volume   282.58462228
_cell_formula_units_Z   1
loop_
 _symmetry_equiv_pos_site_id
 _symmetry_equiv_pos_as_xyz
  1  'x, y, z'
  2  '-x, -y, -z'
  3  '-x+1/2, y+1/2, -z+1/2'
  4  'x+1/2, -y+1/2, z+1/2'
loop_
 _atom_site_type_symbol
 _atom_site_label
 _atom_site_symmetry_multiplicity
 _atom_site_fract_x
 _atom_site_fract_y
 _atom_site_fract_z
 _atom_site_occupancy
  Sr  Sr0  4  0.00874700  0.03740700  0.25054000  1.0
  Y  Y1  2  0.00000000  0.50000000  0.00000000  1.0
  Ru  Ru2  2  0.00000000  0.50000000  0.50000000  0.95
  Cu  Cu3  2  0.00000000  0.50000000  0.50000000  0.05
  O  O4  4  0.07634100  0.52069200  0.73368600  1.0
  O  O5  4  0.19550200  0.77201000  0.45808300  1.0
  O  O6  4  0.22919600  0.80148100  0.03926400  1.0
