# generated using pymatgen
data_CuS2
_symmetry_space_group_name_H-M   P-4m2
_cell_length_a   3.55153800
_cell_length_b   3.55153800
_cell_length_c   4.16561600
_cell_angle_alpha   90.00000000
_cell_angle_beta   90.00000000
_cell_angle_gamma   90.00000000
_symmetry_Int_Tables_number   115
_chemical_formula_structural   CuS2
_chemical_formula_sum   'Cu1 S2'
_cell_volume   52.54267319
_cell_formula_units_Z   1
loop_
 _symmetry_equiv_pos_site_id
 _symmetry_equiv_pos_as_xyz
  1  'x, y, z'
  2  'y, -x, -z'
  3  '-x, -y, z'
  4  '-y, x, -z'
  5  '-x, y, z'
  6  '-y, -x, -z'
  7  'x, -y, z'
  8  'y, x, -z'
loop_
 _atom_site_type_symbol
 _atom_site_label
 _atom_site_symmetry_multiplicity
 _atom_site_fract_x
 _atom_site_fract_y
 _atom_site_fract_z
 _atom_site_occupancy
  Cu  Cu0  1  0.50000000  0.50000000  0.50000000  1.0
  S  S1  2  0.00000000  0.50000000  0.16044200  1.0
