# generated using pymatgen
data_Sr2CuO3
_symmetry_space_group_name_H-M   Cmcm
_cell_length_a   5.49864000
_cell_length_b   5.60280000
_cell_length_c   7.14028138
_cell_angle_alpha   90.00000000
_cell_angle_beta   112.64645008
_cell_angle_gamma   90.00000000
_symmetry_Int_Tables_number   63
_chemical_formula_structural   Sr2CuO3
_chemical_formula_sum   'Sr4 Cu2 O6'
_cell_volume   203.01569264
_cell_formula_units_Z   2
loop_
 _symmetry_equiv_pos_site_id
 _symmetry_equiv_pos_as_xyz
  1  'x, y, z'
  2  '-x, -y, -z'
  3  '-x, y+1/2, -z'
  4  'x, -y+1/2, z'
  5  'x-z, -y, -z'
  6  '-x+z, y, z'
  7  '-x+z, -y+1/2, z'
  8  'x-z, y+1/2, -z'
loop_
 _atom_site_type_symbol
 _atom_site_label
 _atom_site_symmetry_multiplicity
 _atom_site_fract_x
 _atom_site_fract_y
 _atom_site_fract_z
 _atom_site_occupancy
  Sr  Sr0  2  0.11263300  0.75000000  0.22526600  1.0
  Sr  Sr1  2  0.36595700  0.75000000  0.73191400  1.0
  Cu  Cu2  2  0.23458500  0.25000000  0.46917000  1.0
  O  O3  4  0.00000000  0.00000000  0.50000000  1.0
  O  O4  2  0.06913100  0.25000000  0.13826200  1.0
