# generated using pymatgen
data_Cu2Te1.5
_symmetry_space_group_name_H-M   Pmmn
_cell_length_a   3.19556100
_cell_length_b   4.04086400
_cell_length_c   7.12886800
_cell_angle_alpha   90.00000000
_cell_angle_beta   90.00000000
_cell_angle_gamma   90.00000000
_symmetry_Int_Tables_number   59
_chemical_formula_structural   Cu2Te1.5
_chemical_formula_sum   'Cu2 Te1.5'
_cell_volume   92.05384207
_cell_formula_units_Z   1
loop_
 _symmetry_equiv_pos_site_id
 _symmetry_equiv_pos_as_xyz
  1  'x, y, z'
  2  '-x, -y, z'
  3  'x+1/2, -y+1/2, -z'
  4  '-x+1/2, y+1/2, -z'
  5  '-x+1/2, -y+1/2, -z'
  6  'x+1/2, y+1/2, -z'
  7  '-x, y, z'
  8  'x, -y, z'
loop_
 _atom_site_type_symbol
 _atom_site_label
 _atom_site_symmetry_multiplicity
 _atom_site_fract_x
 _atom_site_fract_y
 _atom_site_fract_z
 _atom_site_occupancy
  Cu  Cu0  2  0.00000000  0.50000000  0.45862900  1.0
  Te  Te1  2  0.00000000  0.00000000  0.22720700  0.75
