# generated using pymatgen
data_Fe4TeSe3
_symmetry_space_group_name_H-M   Amm2
_cell_length_a   3.62618700
_cell_length_b   7.27582713
_cell_length_c   7.27582713
_cell_angle_alpha   119.10164781
_cell_angle_beta   90.00000000
_cell_angle_gamma   90.00000000
_symmetry_Int_Tables_number   38
_chemical_formula_structural   Fe4TeSe3
_chemical_formula_sum   'Fe4 Te1 Se3'
_cell_volume   167.72825268
_cell_formula_units_Z   1
loop_
 _symmetry_equiv_pos_site_id
 _symmetry_equiv_pos_as_xyz
  1  'x, y, z'
  2  '-x, -z+1/2, -y+1/2'
  3  '-x, y, z'
  4  'x, -z+1/2, -y+1/2'
loop_
 _atom_site_type_symbol
 _atom_site_label
 _atom_site_symmetry_multiplicity
 _atom_site_fract_x
 _atom_site_fract_y
 _atom_site_fract_z
 _atom_site_occupancy
  Fe  Fe0  2  0.00000000  0.50820200  0.50572600  1.0
  Fe  Fe1  1  0.50000000  0.25856000  0.24144000  1.0
  Fe  Fe2  1  0.50000000  0.75026700  0.74973300  1.0
  Te  Te3  1  0.00000000  0.60498100  0.89501900  1.0
  Se  Se4  2  0.50000000  0.12307600  0.87596800  1.0
  Se  Se5  1  0.00000000  0.13660800  0.36339200  1.0
