# generated using pymatgen
data_Fe2SeS
_symmetry_space_group_name_H-M   P-6m2
_cell_length_a   3.41535400
_cell_length_b   3.41535372
_cell_length_c   5.65856500
_cell_angle_alpha   90.00000000
_cell_angle_beta   90.00000000
_cell_angle_gamma   120.00000274
_symmetry_Int_Tables_number   187
_chemical_formula_structural   Fe2SeS
_chemical_formula_sum   'Fe2 Se1 S1'
_cell_volume   57.16212202
_cell_formula_units_Z   1
loop_
 _symmetry_equiv_pos_site_id
 _symmetry_equiv_pos_as_xyz
  1  'x, y, z'
  2  '-x+y, -x, -z'
  3  '-y, x-y, z'
  4  'x, y, -z'
  5  '-x+y, -x, z'
  6  '-y, x-y, -z'
  7  '-y, -x, -z'
  8  'x, x-y, z'
  9  '-x+y, y, -z'
  10  '-y, -x, z'
  11  'x, x-y, -z'
  12  '-x+y, y, z'
loop_
 _atom_site_type_symbol
 _atom_site_label
 _atom_site_symmetry_multiplicity
 _atom_site_fract_x
 _atom_site_fract_y
 _atom_site_fract_z
 _atom_site_occupancy
  Fe  Fe0  2  0.00000000  0.00000000  0.26949500  1.0
  Se  Se1  1  0.66666667  0.33333333  0.00000000  1.0
  S  S2  1  0.33333333  0.66666667  0.50000000  1.0
