# generated using pymatgen
data_Ga
_symmetry_space_group_name_H-M   Fmmm
_cell_length_a   2.85635210
_cell_length_b   2.85635210
_cell_length_c   3.05866718
_cell_angle_alpha   116.67094987
_cell_angle_beta   116.67094987
_cell_angle_gamma   92.21685614
_symmetry_Int_Tables_number   69
_chemical_formula_structural   Ga
_chemical_formula_sum   Ga1
_cell_volume   19.00434461
_cell_formula_units_Z   1
loop_
 _symmetry_equiv_pos_site_id
 _symmetry_equiv_pos_as_xyz
  1  'x, y, z'
  2  '-x, -y, -z'
  3  '-x+z+1/2, -y+z+1/2, z'
  4  'x-z+1/2, y-z+1/2, -z'
  5  'y-z+1/2, x-z+1/2, -z'
  6  '-y+z+1/2, -x+z+1/2, z'
  7  '-y, -x, -z'
  8  'y, x, z'
loop_
 _atom_site_type_symbol
 _atom_site_label
 _atom_site_symmetry_multiplicity
 _atom_site_fract_x
 _atom_site_fract_y
 _atom_site_fract_z
 _atom_site_occupancy
  Ga  Ga0  1  0.50000000  0.50000000  0.50000000  1.0
