# generated using pymatgen
data_GaN
_symmetry_space_group_name_H-M   P6_3mc
_cell_length_a   3.21153757
_cell_length_b   3.21153757
_cell_length_c   10.35684000
_cell_angle_alpha   90.00000000
_cell_angle_beta   90.00000000
_cell_angle_gamma   119.99999116
_symmetry_Int_Tables_number   186
_chemical_formula_structural   GaN
_chemical_formula_sum   'Ga4 N4'
_cell_volume   92.50899253
_cell_formula_units_Z   4
loop_
 _symmetry_equiv_pos_site_id
 _symmetry_equiv_pos_as_xyz
  1  'x, y, z'
  2  'x-y, x, z+1/2'
  3  '-y, x-y, z'
  4  '-x, -y, z+1/2'
  5  '-x+y, -x, z'
  6  'y, -x+y, z+1/2'
  7  'y, x, z+1/2'
  8  'x, x-y, z'
  9  'x-y, -y, z+1/2'
  10  '-y, -x, z'
  11  '-x, -x+y, z+1/2'
  12  '-x+y, y, z'
loop_
 _atom_site_type_symbol
 _atom_site_label
 _atom_site_symmetry_multiplicity
 _atom_site_fract_x
 _atom_site_fract_y
 _atom_site_fract_z
 _atom_site_occupancy
  Ga  Ga0  2  0.00000000  0.00000000  0.21413200  1.0
  Ga  Ga1  2  0.33333333  0.66666667  0.96265100  1.0
  N  N2  2  0.00000000  0.00000000  0.40696200  1.0
  N  N3  2  0.33333333  0.66666667  0.65625500  1.0
