# generated using pymatgen
data_GaN
_symmetry_space_group_name_H-M   P1
_cell_length_a   12.56655420
_cell_length_b   12.94481420
_cell_length_c   14.14561661
_cell_angle_alpha   89.88139900
_cell_angle_beta   89.15429422
_cell_angle_gamma   89.76988022
_symmetry_Int_Tables_number   1
_chemical_formula_structural   GaN
_chemical_formula_sum   'Ga50 N50'
_cell_volume   2300.81776034
_cell_formula_units_Z   50
loop_
 _symmetry_equiv_pos_site_id
 _symmetry_equiv_pos_as_xyz
  1  'x, y, z'
loop_
 _atom_site_type_symbol
 _atom_site_label
 _atom_site_symmetry_multiplicity
 _atom_site_fract_x
 _atom_site_fract_y
 _atom_site_fract_z
 _atom_site_occupancy
  Ga  Ga0  1  0.00050508  0.41733692  0.80618533  1.0
  Ga  Ga1  1  0.03590972  0.63696815  0.72444706  1.0
  Ga  Ga2  1  0.03692519  0.92097457  0.49978980  1.0
  Ga  Ga3  1  0.04860427  0.48450709  0.60091296  1.0
  Ga  Ga4  1  0.05352335  0.13100578  0.48637017  1.0
  Ga  Ga5  1  0.05834243  0.76116919  0.32339624  1.0
  Ga  Ga6  1  0.06008092  0.75610569  0.02084408  1.0
  Ga  Ga7  1  0.08371841  0.02307094  0.33756590  1.0
  Ga  Ga8  1  0.08633013  0.49444864  0.11968841  1.0
  Ga  Ga9  1  0.09551428  0.71067288  0.55098133  1.0
  Ga  Ga10  1  0.11060858  0.31027566  0.42269665  1.0
  Ga  Ga11  1  0.13587508  0.34032618  0.23741469  1.0
  Ga  Ga12  1  0.14549219  0.38330286  0.94878010  1.0
  Ga  Ga13  1  0.16996700  0.55032873  0.41385471  1.0
  Ga  Ga14  1  0.18102092  0.71087081  0.18765258  1.0
  Ga  Ga15  1  0.18813761  0.58347030  0.94674976  1.0
  Ga  Ga16  1  0.25657476  0.83743724  0.02194102  1.0
  Ga  Ga17  1  0.26167468  0.93247147  0.44117619  1.0
  Ga  Ga18  1  0.26434306  0.52397989  0.25502418  1.0
  Ga  Ga19  1  0.28259795  0.20042961  0.17166685  1.0
  Ga  Ga20  1  0.28400278  0.37915722  0.08088236  1.0
  Ga  Ga21  1  0.29458494  0.22942586  0.36526317  1.0
  Ga  Ga22  1  0.30047743  0.70720361  0.45845867  1.0
  Ga  Ga23  1  0.33987663  0.95301724  0.82137796  1.0
  Ga  Ga24  1  0.37326969  0.71801354  0.26500919  1.0
  Ga  Ga25  1  0.39459473  0.93007386  0.16608272  1.0
  Ga  Ga26  1  0.40285056  0.36503641  0.23840192  1.0
  Ga  Ga27  1  0.43538077  0.95872124  0.99296934  1.0
  Ga  Ga28  1  0.43793320  0.80600000  0.55210123  1.0
  Ga  Ga29  1  0.45184740  0.12299915  0.28819566  1.0
  Ga  Ga30  1  0.46152305  0.87797556  0.37397403  1.0
  Ga  Ga31  1  0.47894008  0.55318533  0.21264560  1.0
  Ga  Ga32  1  0.49049766  0.94385598  0.67636333  1.0
  Ga  Ga33  1  0.50553345  0.66236904  0.67336530  1.0
  Ga  Ga34  1  0.57183005  0.78873236  0.80589826  1.0
  Ga  Ga35  1  0.57723990  0.11983842  0.74939129  1.0
  Ga  Ga36  1  0.58295625  0.96772228  0.87157612  1.0
  Ga  Ga37  1  0.63220503  0.40648915  0.23643210  1.0
  Ga  Ga38  1  0.64078112  0.19916108  0.22083376  1.0
  Ga  Ga39  1  0.64491892  0.83597138  0.58444390  1.0
  Ga  Ga40  1  0.65428054  0.59362985  0.32222227  1.0
  Ga  Ga41  1  0.67128480  0.56818799  0.09181423  1.0
  Ga  Ga42  1  0.70696284  0.76690107  0.40336628  1.0
  Ga  Ga43  1  0.72207622  0.00039163  0.68328630  1.0
  Ga  Ga44  1  0.85543215  0.86252309  0.30153259  1.0
  Ga  Ga45  1  0.86011006  0.88268997  0.57811019  1.0
  Ga  Ga46  1  0.87126677  0.64425293  0.56441354  1.0
  Ga  Ga47  1  0.88823507  0.56158689  0.23119821  1.0
  Ga  Ga48  1  0.93348498  0.75558542  0.16306692  1.0
  Ga  Ga49  1  0.94605800  0.54322630  0.40705324  1.0
  N  N50  1  0.03304552  0.90371958  0.75965323  1.0
  N  N51  1  0.05279530  0.65862648  0.42149374  1.0
  N  N52  1  0.06452061  0.44523571  0.46953812  1.0
  N  N53  1  0.08712872  0.09943313  0.91499900  1.0
  N  N54  1  0.09187391  0.96426096  0.73880819  1.0
  N  N55  1  0.10683548  0.98573897  0.10611977  1.0
  N  N56  1  0.13889339  0.63008383  0.07513653  1.0
  N  N57  1  0.14332447  0.02990733  0.16628198  1.0
  N  N58  1  0.17017570  0.83662188  0.51043017  1.0
  N  N59  1  0.17347389  0.11873192  0.91221588  1.0
  N  N60  1  0.26276293  0.44272140  0.65325080  1.0
  N  N61  1  0.27944011  0.20313558  0.62379586  1.0
  N  N62  1  0.30922496  0.80445683  0.15460909  1.0
  N  N63  1  0.32086066  0.46399906  0.70874632  1.0
  N  N64  1  0.32326255  0.69643243  0.78819846  1.0
  N  N65  1  0.33229168  0.13373906  0.62320546  1.0
  N  N66  1  0.34334631  0.27713394  0.83128595  1.0
  N  N67  1  0.34970760  0.77769035  0.80772612  1.0
  N  N68  1  0.42588135  0.27305043  0.85917266  1.0
  N  N69  1  0.42720705  0.58638949  0.96653103  1.0
  N  N70  1  0.46600512  0.97513310  0.27333218  1.0
  N  N71  1  0.48493270  0.13866863  0.03124810  1.0
  N  N72  1  0.49276029  0.46339225  0.49580849  1.0
  N  N73  1  0.49408802  0.56274964  0.91815806  1.0
  N  N74  1  0.51755576  0.38395453  0.51691425  1.0
  N  N75  1  0.53477432  0.18645634  0.08046943  1.0
  N  N76  1  0.57440091  0.83167996  0.45681943  1.0
  N  N77  1  0.60945203  0.81233853  0.13718870  1.0
  N  N78  1  0.67093907  0.10898917  0.49401718  1.0
  N  N79  1  0.67332442  0.82400513  0.08253209  1.0
  N  N80  1  0.68898228  0.07324869  0.42382384  1.0
  N  N81  1  0.69393140  0.24494229  0.90857719  1.0
  N  N82  1  0.69667791  0.47468097  0.66955673  1.0
  N  N83  1  0.70929766  0.39991801  0.70707227  1.0
  N  N84  1  0.73812863  0.52565925  0.21665166  1.0
  N  N85  1  0.75636181  0.35522503  0.42032520  1.0
  N  N86  1  0.77534307  0.22925520  0.87962920  1.0
  N  N87  1  0.77591803  0.75957191  0.53572947  1.0
  N  N88  1  0.79373762  0.80090441  0.84229789  1.0
  N  N89  1  0.80883187  0.28580482  0.41279814  1.0
  N  N90  1  0.81818603  0.36888310  0.05616457  1.0
  N  N91  1  0.83081844  0.79399163  0.76997895  1.0
  N  N92  1  0.86035741  0.00064294  0.93422178  1.0
  N  N93  1  0.86155034  0.98221819  0.01111218  1.0
  N  N94  1  0.87517097  0.55678245  0.92632636  1.0
  N  N95  1  0.88090020  0.64115697  0.94325398  1.0
  N  N96  1  0.89934595  0.34679016  0.02995459  1.0
  N  N97  1  0.91179559  0.15200982  0.20140407  1.0
  N  N98  1  0.94926450  0.15899865  0.12968066  1.0
  N  N99  1  0.99739276  0.89453042  0.35967831  1.0
