# generated using pymatgen
data_GaSb
_symmetry_space_group_name_H-M   P6_3mc
_cell_length_a   4.38393400
_cell_length_b   4.38393468
_cell_length_c   7.20701800
_cell_angle_alpha   90.00000000
_cell_angle_beta   90.00000000
_cell_angle_gamma   119.99999486
_symmetry_Int_Tables_number   186
_chemical_formula_structural   GaSb
_chemical_formula_sum   'Ga2 Sb2'
_cell_volume   119.95389178
_cell_formula_units_Z   2
loop_
 _symmetry_equiv_pos_site_id
 _symmetry_equiv_pos_as_xyz
  1  'x, y, z'
  2  'x-y, x, z+1/2'
  3  '-y, x-y, z'
  4  '-x, -y, z+1/2'
  5  '-x+y, -x, z'
  6  'y, -x+y, z+1/2'
  7  'y, x, z+1/2'
  8  'x, x-y, z'
  9  'x-y, -y, z+1/2'
  10  '-y, -x, z'
  11  '-x, -x+y, z+1/2'
  12  '-x+y, y, z'
loop_
 _atom_site_type_symbol
 _atom_site_label
 _atom_site_symmetry_multiplicity
 _atom_site_fract_x
 _atom_site_fract_y
 _atom_site_fract_z
 _atom_site_occupancy
  Ga  Ga0  2  0.33333333  0.66666667  0.49987300  1.0
  Sb  Sb1  2  0.33333333  0.66666667  0.12522700  1.0
