# generated using pymatgen
data_VGe2
_symmetry_space_group_name_H-M   P6_222
_cell_length_a   4.81363400
_cell_length_b   4.81363458
_cell_length_c   6.65800700
_cell_angle_alpha   90.00000000
_cell_angle_beta   90.00000000
_cell_angle_gamma   119.99999601
_symmetry_Int_Tables_number   180
_chemical_formula_structural   VGe2
_chemical_formula_sum   'V3 Ge6'
_cell_volume   133.60449843
_cell_formula_units_Z   3
loop_
 _symmetry_equiv_pos_site_id
 _symmetry_equiv_pos_as_xyz
  1  'x, y, z'
  2  'x-y, x, z+1/3'
  3  '-y, x-y, z+2/3'
  4  '-x, -y, z'
  5  '-x+y, -x, z+1/3'
  6  'y, -x+y, z+2/3'
  7  '-y, -x, -z'
  8  '-x, -x+y, -z+2/3'
  9  '-x+y, y, -z+1/3'
  10  'y, x, -z'
  11  'x, x-y, -z+2/3'
  12  'x-y, -y, -z+1/3'
loop_
 _atom_site_type_symbol
 _atom_site_label
 _atom_site_symmetry_multiplicity
 _atom_site_fract_x
 _atom_site_fract_y
 _atom_site_fract_z
 _atom_site_occupancy
  V  V0  3  0.00000000  0.50000000  0.33333333  1.0
  Ge  Ge1  6  0.16546500  0.33093000  0.66666667  1.0
