# generated using pymatgen
data_MgHg2
_symmetry_space_group_name_H-M   C2/m
_cell_length_a   3.28894200
_cell_length_b   6.85966785
_cell_length_c   6.88826513
_cell_angle_alpha   110.99792644
_cell_angle_beta   103.81189984
_cell_angle_gamma   90.00000000
_symmetry_Int_Tables_number   12
_chemical_formula_structural   MgHg2
_chemical_formula_sum   'Mg2 Hg4'
_cell_volume   140.26261608
_cell_formula_units_Z   2
loop_
 _symmetry_equiv_pos_site_id
 _symmetry_equiv_pos_as_xyz
  1  'x, y, z'
  2  '-x, -y, -z'
  3  'x-z, -y, -z'
  4  '-x+z, y, z'
loop_
 _atom_site_type_symbol
 _atom_site_label
 _atom_site_symmetry_multiplicity
 _atom_site_fract_x
 _atom_site_fract_y
 _atom_site_fract_z
 _atom_site_occupancy
  Mg  Mg0  2  0.13908100  0.53464300  0.27816200  1.0
  Hg  Hg1  2  0.19755000  0.15523600  0.39510000  1.0
  Hg  Hg2  2  0.47206700  0.21012800  0.94413400  1.0
