# generated using pymatgen
data_K
_symmetry_space_group_name_H-M   C2/c
_cell_length_a   4.41465314
_cell_length_b   4.41465314
_cell_length_c   8.43981493
_cell_angle_alpha   104.47938274
_cell_angle_beta   104.47938274
_cell_angle_gamma   90.28520988
_symmetry_Int_Tables_number   15
_chemical_formula_structural   K
_chemical_formula_sum   K2
_cell_volume   153.80186681
_cell_formula_units_Z   2
loop_
 _symmetry_equiv_pos_site_id
 _symmetry_equiv_pos_as_xyz
  1  'x, y, z'
  2  '-x, -y, -z'
  3  '-y, -x, -z+1/2'
  4  'y, x, z+1/2'
loop_
 _atom_site_type_symbol
 _atom_site_label
 _atom_site_symmetry_multiplicity
 _atom_site_fract_x
 _atom_site_fract_y
 _atom_site_fract_z
 _atom_site_occupancy
  K  K0  2  0.36381700  0.63618300  0.25000000  1.0
