# generated using pymatgen
data_Mg2Zn3
_symmetry_space_group_name_H-M   C2/c
_cell_length_a   4.81008800
_cell_length_b   5.02146630
_cell_length_c   5.50997314
_cell_angle_alpha   66.71817460
_cell_angle_beta   64.11990543
_cell_angle_gamma   61.38298744
_symmetry_Int_Tables_number   15
_chemical_formula_structural   Mg2Zn3
_chemical_formula_sum   'Mg2 Zn3'
_cell_volume   102.14898151
_cell_formula_units_Z   1
loop_
 _symmetry_equiv_pos_site_id
 _symmetry_equiv_pos_as_xyz
  1  'x, y, z'
  2  '-x, -y, -z'
  3  'x+y+z, -y+1/2, -z+1/2'
  4  '-x-y-z, y+1/2, z+1/2'
loop_
 _atom_site_type_symbol
 _atom_site_label
 _atom_site_symmetry_multiplicity
 _atom_site_fract_x
 _atom_site_fract_y
 _atom_site_fract_z
 _atom_site_occupancy
  Mg  Mg0  2  0.08531500  0.75000000  0.25000000  1.0
  Zn  Zn1  4  0.25181600  0.59217200  0.73818900  0.75
