# generated using pymatgen
data_Te2Mo
_symmetry_space_group_name_H-M   P2_1/m
_cell_length_a   3.45986400
_cell_length_b   6.38513200
_cell_length_c   36.46140505
_cell_angle_alpha   89.99690275
_cell_angle_beta   90.00000000
_cell_angle_gamma   90.00000000
_symmetry_Int_Tables_number   11
_chemical_formula_structural   Te2Mo
_chemical_formula_sum   'Te4 Mo2'
_cell_volume   805.49399570
_cell_formula_units_Z   2
loop_
 _symmetry_equiv_pos_site_id
 _symmetry_equiv_pos_as_xyz
  1  'x, y, z'
  2  '-x, -y, -z'
  3  'x+1/2, -y, -z'
  4  '-x+1/2, y, z'
loop_
 _atom_site_type_symbol
 _atom_site_label
 _atom_site_symmetry_multiplicity
 _atom_site_fract_x
 _atom_site_fract_y
 _atom_site_fract_z
 _atom_site_occupancy
  Te  Te0  2  0.25000000  0.57854800  0.94312900  1.0
  Te  Te1  2  0.25000000  0.92980400  0.04061500  1.0
  Mo  Mo2  2  0.25000000  0.31886600  0.00259900  1.0
