# generated using pymatgen
data_W2N1.94
_symmetry_space_group_name_H-M   P6_3mc
_cell_length_a   2.92357400
_cell_length_b   2.92357369
_cell_length_c   6.45206400
_cell_angle_alpha   90.00000000
_cell_angle_beta   90.00000000
_cell_angle_gamma   120.00000346
_symmetry_Int_Tables_number   186
_chemical_formula_structural   W2N1.94
_chemical_formula_sum   'W2 N1.94'
_cell_volume   47.75924130
_cell_formula_units_Z   1
loop_
 _symmetry_equiv_pos_site_id
 _symmetry_equiv_pos_as_xyz
  1  'x, y, z'
  2  'x-y, x, z+1/2'
  3  '-y, x-y, z'
  4  '-x, -y, z+1/2'
  5  '-x+y, -x, z'
  6  'y, -x+y, z+1/2'
  7  'y, x, z+1/2'
  8  'x, x-y, z'
  9  'x-y, -y, z+1/2'
  10  '-y, -x, z'
  11  '-x, -x+y, z+1/2'
  12  '-x+y, y, z'
loop_
 _atom_site_type_symbol
 _atom_site_label
 _atom_site_symmetry_multiplicity
 _atom_site_fract_x
 _atom_site_fract_y
 _atom_site_fract_z
 _atom_site_occupancy
  W  W0  2  0.33333333  0.66666667  0.15726500  1.0
  N  N1  2  0.33333333  0.66666667  0.46773600  0.97
