# generated using pymatgen
data_NbPt2
_symmetry_space_group_name_H-M   Immm
_cell_length_a   2.82608800
_cell_length_b   4.01251600
_cell_length_c   4.94038337
_cell_angle_alpha   113.95967506
_cell_angle_beta   106.61977466
_cell_angle_gamma   89.99999999
_symmetry_Int_Tables_number   71
_chemical_formula_structural   NbPt2
_chemical_formula_sum   'Nb1 Pt2'
_cell_volume   48.62298728
_cell_formula_units_Z   1
loop_
 _symmetry_equiv_pos_site_id
 _symmetry_equiv_pos_as_xyz
  1  'x, y, z'
  2  '-x, -y, -z'
  3  '-x+z, -y+z, z'
  4  'x-z, y-z, -z'
  5  'x-z, -y, -z'
  6  '-x+z, y, z'
  7  '-x, y-z, -z'
  8  'x, -y+z, z'
loop_
 _atom_site_type_symbol
 _atom_site_label
 _atom_site_symmetry_multiplicity
 _atom_site_fract_x
 _atom_site_fract_y
 _atom_site_fract_z
 _atom_site_occupancy
  Nb  Nb0  1  0.00000000  0.00000000  0.00000000  1.0
  Pt  Pt1  2  0.33556700  0.33556700  0.67113400  1.0
