# generated using pymatgen
data_NiP
_symmetry_space_group_name_H-M   Pbca
_cell_length_a   4.87648400
_cell_length_b   6.02612200
_cell_length_c   6.91629900
_cell_angle_alpha   90.00000000
_cell_angle_beta   90.00000000
_cell_angle_gamma   90.00000000
_symmetry_Int_Tables_number   61
_chemical_formula_structural   NiP
_chemical_formula_sum   'Ni8 P8'
_cell_volume   203.24435095
_cell_formula_units_Z   8
loop_
 _symmetry_equiv_pos_site_id
 _symmetry_equiv_pos_as_xyz
  1  'x, y, z'
  2  '-x, -y, -z'
  3  '-x+1/2, y+1/2, -z'
  4  'x+1/2, -y+1/2, z'
  5  'x+1/2, -y, -z+1/2'
  6  '-x+1/2, y, z+1/2'
  7  '-x, -y+1/2, z+1/2'
  8  'x, y+1/2, -z+1/2'
loop_
 _atom_site_type_symbol
 _atom_site_label
 _atom_site_symmetry_multiplicity
 _atom_site_fract_x
 _atom_site_fract_y
 _atom_site_fract_z
 _atom_site_occupancy
  Ni  Ni0  8  0.01514500  0.19263300  0.60021100  1.0
  P  P1  8  0.17344000  0.05668300  0.88542800  1.0
