# generated using pymatgen
data_O2
_symmetry_space_group_name_H-M   Cmcm
_cell_length_a   1.53219800
_cell_length_b   2.43154953
_cell_length_c   5.70163100
_cell_angle_alpha   90.00000000
_cell_angle_beta   90.00000000
_cell_angle_gamma   108.36480851
_symmetry_Int_Tables_number   63
_chemical_formula_structural   O2
_chemical_formula_sum   O2
_cell_volume   20.16021828
_cell_formula_units_Z   1
loop_
 _symmetry_equiv_pos_site_id
 _symmetry_equiv_pos_as_xyz
  1  'x, y, z'
  2  '-x, -y, -z'
  3  '-x, -y, z+1/2'
  4  'x, y, -z+1/2'
  5  'x-y, -y, -z'
  6  '-x+y, y, z'
  7  '-x+y, y, -z+1/2'
  8  'x-y, -y, z+1/2'
loop_
 _atom_site_type_symbol
 _atom_site_label
 _atom_site_symmetry_multiplicity
 _atom_site_fract_x
 _atom_site_fract_y
 _atom_site_fract_z
 _atom_site_occupancy
  O  O0  2  0.16630200  0.33260400  0.25000000  1.0
