# generated using pymatgen
data_PbS
_symmetry_space_group_name_H-M   Aem2
_cell_length_a   4.25470597
_cell_length_b   4.25470597
_cell_length_c   11.37018900
_cell_angle_alpha   90.00000000
_cell_angle_beta   90.00000000
_cell_angle_gamma   89.88763782
_symmetry_Int_Tables_number   39
_chemical_formula_structural   PbS
_chemical_formula_sum   'Pb2 S2'
_cell_volume   205.82871085
_cell_formula_units_Z   2
loop_
 _symmetry_equiv_pos_site_id
 _symmetry_equiv_pos_as_xyz
  1  'x, y, z'
  2  'y, x, -z'
  3  'x+1/2, y+1/2, -z'
  4  'y+1/2, x+1/2, z'
loop_
 _atom_site_type_symbol
 _atom_site_label
 _atom_site_symmetry_multiplicity
 _atom_site_fract_x
 _atom_site_fract_y
 _atom_site_fract_z
 _atom_site_occupancy
  Pb  Pb0  2  0.25368500  0.75368500  0.62510100  1.0
  S  S1  2  0.26731500  0.76731500  0.38793800  1.0
