# generated using pymatgen
data_Sn4Pd
_symmetry_space_group_name_H-M   Cmce
_cell_length_a   6.57207800
_cell_length_b   6.59959000
_cell_length_c   9.33708146
_cell_angle_alpha   90.00000000
_cell_angle_beta   110.60566979
_cell_angle_gamma   90.00000000
_symmetry_Int_Tables_number   64
_chemical_formula_structural   Sn4Pd
_chemical_formula_sum   'Sn12 Pd3'
_cell_volume   379.06887680
_cell_formula_units_Z   3
loop_
 _symmetry_equiv_pos_site_id
 _symmetry_equiv_pos_as_xyz
  1  'x, y, z'
  2  '-x, -y, -z'
  3  '-x+1/2, y+1/2, -z'
  4  'x+1/2, -y+1/2, z'
  5  '-x+z, -y, z'
  6  'x-z, y, -z'
  7  'x-z+1/2, -y+1/2, -z'
  8  '-x+z+1/2, y+1/2, z'
loop_
 _atom_site_type_symbol
 _atom_site_label
 _atom_site_symmetry_multiplicity
 _atom_site_fract_x
 _atom_site_fract_y
 _atom_site_fract_z
 _atom_site_occupancy
  Sn  Sn0  8  0.00287300  0.67026200  0.66459800  1.0
  Sn  Sn1  4  0.16018400  0.33785700  0.00000000  1.0
  Pd  Pd2  4  0.08516400  0.00000000  0.17032800  0.75
