# generated using pymatgen
data_Th2.5Pt5
_symmetry_space_group_name_H-M   P-62m
_cell_length_a   3.60991100
_cell_length_b   7.69999811
_cell_length_c   7.69999811
_cell_angle_alpha   120.00000094
_cell_angle_beta   90.00000000
_cell_angle_gamma   90.00000000
_symmetry_Int_Tables_number   189
_chemical_formula_structural   Th2.5Pt5
_chemical_formula_sum   'Th2.5 Pt5'
_cell_volume   185.35673015
_cell_formula_units_Z   1
loop_
 _symmetry_equiv_pos_site_id
 _symmetry_equiv_pos_as_xyz
  1  'x, y, z'
  2  '-x, -z, y-z'
  3  'x, -y+z, -y'
  4  '-x, y, z'
  5  'x, -z, y-z'
  6  '-x, -y+z, -y'
  7  'x, -y, -y+z'
  8  '-x, z, y'
  9  'x, y-z, -z'
  10  '-x, -y, -y+z'
  11  'x, z, y'
  12  '-x, y-z, -z'
loop_
 _atom_site_type_symbol
 _atom_site_label
 _atom_site_symmetry_multiplicity
 _atom_site_fract_x
 _atom_site_fract_y
 _atom_site_fract_z
 _atom_site_occupancy
  Th  Th0  3  0.00000000  0.00000000  0.27422200  0.8333333333333334
  Pt  Pt1  3  0.50000000  0.00000000  0.65934100  1.0
  Pt  Pt2  2  0.00000000  0.33333333  0.66666667  1.0
