# generated using pymatgen
data_ZrRh
_symmetry_space_group_name_H-M   P4/mmm
_cell_length_a   3.16139300
_cell_length_b   3.37720255
_cell_length_c   3.37720255
_cell_angle_alpha   90.13146845
_cell_angle_beta   90.00000000
_cell_angle_gamma   90.00000000
_symmetry_Int_Tables_number   123
_chemical_formula_structural   ZrRh
_chemical_formula_sum   'Zr1 Rh1'
_cell_volume   36.05716366
_cell_formula_units_Z   1
loop_
 _symmetry_equiv_pos_site_id
 _symmetry_equiv_pos_as_xyz
  1  'x, y, z'
  2  '-x, -y, -z'
  3  'x, -z+1/2, y+1/2'
  4  '-x, z+1/2, -y+1/2'
  5  'x, -y, -z'
  6  '-x, y, z'
  7  'x, z+1/2, -y+1/2'
  8  '-x, -z+1/2, y+1/2'
  9  '-x, y, -z'
  10  'x, -y, z'
  11  '-x, -z+1/2, -y+1/2'
  12  'x, z+1/2, y+1/2'
  13  '-x, -y, z'
  14  'x, y, -z'
  15  '-x, z+1/2, y+1/2'
  16  'x, -z+1/2, -y+1/2'
loop_
 _atom_site_type_symbol
 _atom_site_label
 _atom_site_symmetry_multiplicity
 _atom_site_fract_x
 _atom_site_fract_y
 _atom_site_fract_z
 _atom_site_occupancy
  Zr  Zr0  1  0.50000000  0.00000000  0.50000000  1.0
  Rh  Rh1  1  0.00000000  0.50000000  0.00000000  1.0
