# generated using pymatgen
data_TaS2
_symmetry_space_group_name_H-M   R3m
_cell_length_a   3.34374726
_cell_length_b   3.34374726
_cell_length_c   7.08925323
_cell_angle_alpha   76.35931599
_cell_angle_beta   76.35931599
_cell_angle_gamma   60.00001476
_symmetry_Int_Tables_number   160
_chemical_formula_structural   TaS2
_chemical_formula_sum   'Ta1 S2'
_cell_volume   66.04911926
_cell_formula_units_Z   1
loop_
 _symmetry_equiv_pos_site_id
 _symmetry_equiv_pos_as_xyz
  1  'x, y, z'
  2  'y, -x-y-z, z'
  3  '-x-y-z, x, z'
  4  'y, x, z'
  5  '-x-y-z, y, z'
  6  'x, -x-y-z, z'
loop_
 _atom_site_type_symbol
 _atom_site_label
 _atom_site_symmetry_multiplicity
 _atom_site_fract_x
 _atom_site_fract_y
 _atom_site_fract_z
 _atom_site_occupancy
  Ta  Ta0  1  0.83323500  0.83323500  0.50029500  1.0
  S  S1  1  0.42352900  0.42352900  0.72941300  1.0
  S  S2  1  0.57623600  0.57623600  0.27129200  1.0
