# generated using pymatgen
data_SnSb
_symmetry_space_group_name_H-M   R3m
_cell_length_a   4.47615213
_cell_length_b   4.47615213
_cell_length_c   4.47615220
_cell_angle_alpha   69.31980230
_cell_angle_beta   69.31980230
_cell_angle_gamma   69.31981401
_symmetry_Int_Tables_number   160
_chemical_formula_structural   SnSb
_chemical_formula_sum   'Sn1 Sb1'
_cell_volume   75.77835846
_cell_formula_units_Z   1
loop_
 _symmetry_equiv_pos_site_id
 _symmetry_equiv_pos_as_xyz
  1  'x, y, z'
  2  'z, x, y'
  3  'y, z, x'
  4  'z, y, x'
  5  'y, x, z'
  6  'x, z, y'
loop_
 _atom_site_type_symbol
 _atom_site_label
 _atom_site_symmetry_multiplicity
 _atom_site_fract_x
 _atom_site_fract_y
 _atom_site_fract_z
 _atom_site_occupancy
  Sn  Sn0  1  0.64326000  0.64326000  0.64326000  1.0
  Sb  Sb1  1  0.35674000  0.35674000  0.35674000  1.0
