# generated using pymatgen
data_TiSi
_symmetry_space_group_name_H-M   Amm2
_cell_length_a   2.80027374
_cell_length_b   2.80027374
_cell_length_c   3.79894900
_cell_angle_alpha   90.00000000
_cell_angle_beta   90.00000000
_cell_angle_gamma   99.64077693
_symmetry_Int_Tables_number   38
_chemical_formula_structural   TiSi
_chemical_formula_sum   'Ti1 Si1'
_cell_volume   29.36886869
_cell_formula_units_Z   1
loop_
 _symmetry_equiv_pos_site_id
 _symmetry_equiv_pos_as_xyz
  1  'x, y, z'
  2  '-y, -x, -z'
  3  'x, y, -z'
  4  '-y, -x, z'
loop_
 _atom_site_type_symbol
 _atom_site_label
 _atom_site_symmetry_multiplicity
 _atom_site_fract_x
 _atom_site_fract_y
 _atom_site_fract_z
 _atom_site_occupancy
  Ti  Ti0  1  0.95516400  0.04483600  0.00000000  1.0
  Si  Si1  1  0.44333600  0.55666400  0.50000000  1.0
