# generated using pymatgen
data_TiSi
_symmetry_space_group_name_H-M   Cmmm
_cell_length_a   2.78977310
_cell_length_b   2.78977310
_cell_length_c   3.80393400
_cell_angle_alpha   90.00000000
_cell_angle_beta   90.00000000
_cell_angle_gamma   98.76398725
_symmetry_Int_Tables_number   65
_chemical_formula_structural   TiSi
_chemical_formula_sum   'Ti1 Si1'
_cell_volume   29.25972437
_cell_formula_units_Z   1
loop_
 _symmetry_equiv_pos_site_id
 _symmetry_equiv_pos_as_xyz
  1  'x, y, z'
  2  '-x, -y, -z'
  3  '-x, -y, z'
  4  'x, y, -z'
  5  'y, x, -z'
  6  '-y, -x, z'
  7  '-y, -x, -z'
  8  'y, x, z'
loop_
 _atom_site_type_symbol
 _atom_site_label
 _atom_site_symmetry_multiplicity
 _atom_site_fract_x
 _atom_site_fract_y
 _atom_site_fract_z
 _atom_site_occupancy
  Ti  Ti0  1  0.50000000  0.50000000  0.00000000  1.0
  Si  Si1  1  0.00000000  0.00000000  0.50000000  1.0
