# generated using pymatgen
data_Ta
_symmetry_space_group_name_H-M   Cmmm
_cell_length_a   2.40672000
_cell_length_b   21.71715200
_cell_length_c   21.71715200
_cell_angle_alpha   89.99824291
_cell_angle_beta   90.00000000
_cell_angle_gamma   90.00000000
_symmetry_Int_Tables_number   65
_chemical_formula_structural   Ta
_chemical_formula_sum   Ta2
_cell_volume   1135.09264297
_cell_formula_units_Z   2
loop_
 _symmetry_equiv_pos_site_id
 _symmetry_equiv_pos_as_xyz
  1  'x, y, z'
  2  '-x, -y, -z'
  3  'x, -y, -z'
  4  '-x, y, z'
  5  '-x, -z+1/2, -y+1/2'
  6  'x, z+1/2, y+1/2'
  7  '-x, z+1/2, y+1/2'
  8  'x, -z+1/2, -y+1/2'
loop_
 _atom_site_type_symbol
 _atom_site_label
 _atom_site_symmetry_multiplicity
 _atom_site_fract_x
 _atom_site_fract_y
 _atom_site_fract_z
 _atom_site_occupancy
  Ta  Ta0  2  0.00000000  0.18191000  0.68191000  1.0
