# generated using pymatgen
data_Ti
_symmetry_space_group_name_H-M   P-3m1
_cell_length_a   2.92807700
_cell_length_b   2.92807633
_cell_length_c   28.08734100
_cell_angle_alpha   90.00000000
_cell_angle_beta   90.00000000
_cell_angle_gamma   120.00001890
_symmetry_Int_Tables_number   164
_chemical_formula_structural   Ti
_chemical_formula_sum   Ti6
_cell_volume   208.54801620
_cell_formula_units_Z   6
loop_
 _symmetry_equiv_pos_site_id
 _symmetry_equiv_pos_as_xyz
  1  'x, y, z'
  2  '-x, -y, -z'
  3  '-y, x-y, z'
  4  'y, -x+y, -z'
  5  '-x+y, -x, z'
  6  'x-y, x, -z'
  7  'y, x, -z'
  8  '-y, -x, z'
  9  'x-y, -y, -z'
  10  '-x+y, y, z'
  11  '-x, -x+y, -z'
  12  'x, x-y, z'
loop_
 _atom_site_type_symbol
 _atom_site_label
 _atom_site_symmetry_multiplicity
 _atom_site_fract_x
 _atom_site_fract_y
 _atom_site_fract_z
 _atom_site_occupancy
  Ti  Ti0  2  0.33333333  0.66666667  0.29561800  1.0
  Ti  Ti1  2  0.33333333  0.66666667  0.45910400  1.0
  Ti  Ti2  2  0.33333333  0.66666667  0.62646400  1.0
